data_[CoreMOF]TOFTIT_clean

_audit_creation_method RASPA-1.0
_audit_creation_date 2025-1-26
_audit_author_name ''

_cell_length_a    31.4955
_cell_length_b    31.4955
_cell_length_c    31.6234
_cell_angle_alpha 119.866
_cell_angle_beta  119.866
_cell_angle_gamma 90
_cell_volume      22271

_symmetry_cell_setting          triclinic
_symmetry_space_group_name_Hall 'P 1'
_symmetry_space_group_name_H-M  'P 1'
_symmetry_Int_Tables_number     1

_symmetry_equiv_pos_as_xyz 'x,y,z'

loop_
_atom_site_label
_atom_site_type_symbol
_atom_site_fract_x
_atom_site_fract_y
_atom_site_fract_z
_atom_site_charge
Cu1      Cu     0.769620000000     0.732280000000     0.251420000000     1.10787    
Cu2      Cu     0.518190000000     0.480860000000     0.748570000000     1.10781    
Cu3      Cu     0.481810000000     0.519140000000     0.251430000000     1.10779    
Cu4      Cu     0.453330000000     0.165840000000     0.000010000000     0.969681   
Cu5      Cu     0.809680000000     0.475760000000     0.334860000000     1.1032     
Cu6      Cu     0.834160000000     0.453330000000     0.000000000000     0.969664   
Cu7      Cu     0.732280000000     0.481810000000     0.251420000000     1.10794    
Cu8      Cu     0.859100000000     0.809680000000     0.334860000000     1.10315    
Cu9      Cu     0.750720000000     0.464560000000     0.000000000000     0.989632   
Cu10     Cu     0.140900000000     0.190320000000     0.665140000000     1.10315    
Cu11     Cu     0.525180000000     0.859100000000     0.334860000000     1.10311    
Cu12     Cu     0.475760000000     0.525180000000     0.334860000000     1.10311    
Cu13     Cu     0.464560000000     0.249280000000     0.000000000000     0.98968    
Cu14     Cu     0.535440000000     0.750720000000     0.000000000000     0.989471   
Cu15     Cu     0.230380000000     0.267720000000     0.748580000000     1.10789    
Cu16     Cu     0.519140000000     0.769620000000     0.251430000000     1.1078     
Cu17     Cu     0.249280000000     0.535440000000     0.000000000000     0.989631   
Cu18     Cu     0.165840000000     0.546670000000     0.000000000000     0.969681   
Cu19     Cu     0.474820000000     0.140900000000     0.665140000000     1.10311    
Cu20     Cu     0.524240000000     0.474820000000     0.665140000000     1.10311    
Cu21     Cu     0.546670000000     0.834160000000     0.999990000000     0.970814   
Cu22     Cu     0.267720000000     0.518190000000     0.748580000000     1.10796    
Cu23     Cu     0.190320000000     0.524240000000     0.665140000000     1.1032     
Cu24     Cu     0.480860000000     0.230380000000     0.748570000000     1.10782    
H1       H      0.926200000000     0.899200000000     0.410800000000     0.262634   
H2       H      0.214500000000     0.746300000000     0.726600000000     0.0581685  
H3       H      0.274500000000     0.896900000000     0.784400000000     0.163932   
H4       H      0.691300000000     0.786500000000     0.141000000000     0.0603085  
H5       H      0.930700000000     0.614600000000     0.123800000000     0.0852648  
H6       H      0.463900000000     0.182300000000     0.550800000000     0.0911146  
H7       H      0.564600000000     0.770700000000     0.856000000000     0.0780106  
H8       H      0.330200000000     0.519600000000     0.144400000000     0.0659981  
H9       H      0.624800000000     0.330200000000     0.144400000000     0.0659904  
H10      H      0.462300000000     0.207600000000     0.214000000000     0.0503659  
H11      H      0.490100000000     0.112500000000     0.215600000000     0.163916   
H12      H      0.689400000000     0.500200000000     0.749600000000     0.0831817  
H13      H      0.073800000000     0.100800000000     0.589200000000     0.262645   
H14      H      0.691600000000     0.934500000000     0.448800000000     0.0848241  
H15      H      0.725500000000     0.103100000000     0.215600000000     0.163913   
H16      H      0.914700000000     0.435400000000     0.144000000000     0.0779679  
H17      H      0.308700000000     0.213500000000     0.859000000000     0.0603739  
H18      H      0.490800000000     0.069300000000     0.876200000000     0.0853447  
H19      H      0.511600000000     0.926200000000     0.410800000000     0.262642   
H20      H      0.205800000000     0.468400000000     0.456600000000     0.0549049  
H21      H      0.322100000000     0.501400000000     0.826800000000     0.264084   
H22      H      0.905800000000     0.445600000000     0.270600000000     0.0907519  
H23      H      0.185800000000     0.375200000000     0.855600000000     0.0660436  
H24      H      0.749200000000     0.011800000000     0.543400000000     0.0548993  
H25      H      0.069300000000     0.385400000000     0.876200000000     0.0853477  
H26      H      0.913100000000     0.631500000000     0.449200000000     0.0911043  
H27      H      0.817700000000     0.913100000000     0.449200000000     0.0911057  
H28      H      0.059900000000     0.445000000000     0.184400000000     0.143399   
H29      H      0.516100000000     0.679300000000     0.317000000000     0.0680114  
H30      H      0.480400000000     0.185800000000     0.855600000000     0.0660469  
H31      H      0.940100000000     0.555000000000     0.815600000000     0.143437   
H32      H      0.750600000000     0.310600000000     0.250400000000     0.0831557  
H33      H      0.484600000000     0.511600000000     0.410800000000     0.262649   
H34      H      0.531600000000     0.749200000000     0.543400000000     0.0549079  
H35      H      0.939800000000     0.750600000000     0.250400000000     0.083146   
H36      H      0.631500000000     0.536100000000     0.449200000000     0.091116   
H37      H      0.487900000000     0.019700000000     0.273400000000     0.0581559  
H38      H      0.637700000000     0.516100000000     0.317000000000     0.068006   
H39      H      0.674600000000     0.677900000000     0.173200000000     0.264039   
H40      H      0.746300000000     0.512100000000     0.726600000000     0.0581689  
H41      H      0.814200000000     0.624800000000     0.144400000000     0.0659916  
H42      H      0.085300000000     0.564600000000     0.856000000000     0.0780356  
H43      H      0.364800000000     0.825000000000     0.270600000000     0.0907574  
H44      H      0.512100000000     0.980300000000     0.726600000000     0.0581681  
H45      H      0.019700000000     0.785500000000     0.273400000000     0.0581514  
H46      H      0.792400000000     0.248300000000     0.786000000000     0.0503799  
H47      H      0.509200000000     0.930700000000     0.123800000000     0.0852522  
H48      H      0.229300000000     0.708600000000     0.144000000000     0.0779789  
H49      H      0.504700000000     0.325400000000     0.826800000000     0.264052   
H50      H      0.060200000000     0.249400000000     0.749600000000     0.0831802  
H51      H      0.751700000000     0.006400000000     0.214000000000     0.0503559  
H52      H      0.495300000000     0.674600000000     0.173200000000     0.264017   
H53      H      0.086900000000     0.368500000000     0.550800000000     0.0911113  
H54      H      0.785500000000     0.253700000000     0.273400000000     0.0581614  
H55      H      0.554400000000     0.635200000000     0.729400000000     0.0907731  
H56      H      0.213500000000     0.550300000000     0.859000000000     0.060369   
H57      H      0.291400000000     0.085300000000     0.856000000000     0.0780372  
H58      H      0.514300000000     0.691600000000     0.448800000000     0.0848345  
H59      H      0.645500000000     0.308700000000     0.859000000000     0.0603768  
H60      H      0.509900000000     0.887500000000     0.784400000000     0.163931   
H61      H      0.614600000000     0.193100000000     0.123800000000     0.0852704  
H62      H      0.124500000000     0.739400000000     0.184400000000     0.143398   
H63      H      0.112500000000     0.725500000000     0.215600000000     0.163918   
H64      H      0.385400000000     0.806900000000     0.876200000000     0.0853207  
H65      H      0.249400000000     0.689400000000     0.749600000000     0.0831726  
H66      H      0.899200000000     0.484600000000     0.410800000000     0.262641   
H67      H      0.708600000000     0.914700000000     0.144000000000     0.0779513  
H68      H      0.250800000000     0.988200000000     0.456600000000     0.0549014  
H69      H      0.445600000000     0.364800000000     0.270600000000     0.090761   
H70      H      0.354500000000     0.691300000000     0.141000000000     0.0603207  
H71      H      0.325400000000     0.322100000000     0.826800000000     0.264073   
H72      H      0.435400000000     0.229300000000     0.144000000000     0.0779747  
H73      H      0.515400000000     0.488400000000     0.589200000000     0.262649   
H74      H      0.449700000000     0.354500000000     0.141000000000     0.0603164  
H75      H      0.094200000000     0.554400000000     0.729400000000     0.0907737  
H76      H      0.739400000000     0.059900000000     0.184400000000     0.14339    
H77      H      0.794200000000     0.531600000000     0.543400000000     0.0549056  
H78      H      0.887500000000     0.274500000000     0.784400000000     0.163936   
H79      H      0.786500000000     0.449700000000     0.141000000000     0.060312   
H80      H      0.993600000000     0.537700000000     0.786000000000     0.0503806  
H81      H      0.011800000000     0.794200000000     0.543400000000     0.0548956  
H82      H      0.368500000000     0.463900000000     0.550800000000     0.091114   
H83      H      0.679300000000     0.800900000000     0.317000000000     0.0680101  
H84      H      0.182300000000     0.086900000000     0.550800000000     0.0911158  
H85      H      0.501400000000     0.504700000000     0.826800000000     0.264054   
H86      H      0.550300000000     0.645500000000     0.859000000000     0.0603645  
H87      H      0.483900000000     0.320700000000     0.683000000000     0.0680188  
H88      H      0.806900000000     0.490800000000     0.876200000000     0.0853399  
H89      H      0.199100000000     0.362300000000     0.683000000000     0.06801    
H90      H      0.488400000000     0.073800000000     0.589200000000     0.262647   
H91      H      0.519600000000     0.814200000000     0.144400000000     0.0659902  
H92      H      0.934500000000     0.757200000000     0.448800000000     0.0848193  
H93      H      0.445000000000     0.124500000000     0.184400000000     0.143397   
H94      H      0.499800000000     0.939800000000     0.250400000000     0.0831482  
H95      H      0.800900000000     0.637700000000     0.317000000000     0.0680022  
H96      H      0.100800000000     0.515400000000     0.589200000000     0.262648   
H97      H      0.980300000000     0.214500000000     0.726600000000     0.0581672  
H98      H      0.468400000000     0.250800000000     0.456600000000     0.0549047  
H99      H      0.555000000000     0.875500000000     0.815600000000     0.143436   
H100     H      0.248300000000     0.993600000000     0.786000000000     0.0503805  
H101     H      0.308400000000     0.065500000000     0.551200000000     0.084834   
H102     H      0.320700000000     0.199100000000     0.683000000000     0.068018   
H103     H      0.498600000000     0.495300000000     0.173200000000     0.264019   
H104     H      0.362300000000     0.483900000000     0.683000000000     0.0680133  
H105     H      0.310600000000     0.499800000000     0.250400000000     0.0831638  
H106     H      0.065500000000     0.242800000000     0.551200000000     0.0848301  
H107     H      0.103100000000     0.490100000000     0.215600000000     0.163919   
H108     H      0.175000000000     0.094200000000     0.729400000000     0.0907758  
H109     H      0.635200000000     0.175000000000     0.729400000000     0.0907781  
H110     H      0.253700000000     0.487900000000     0.273400000000     0.0581651  
H111     H      0.500200000000     0.060200000000     0.749600000000     0.083183   
H112     H      0.193100000000     0.509200000000     0.123800000000     0.0852795  
H113     H      0.896900000000     0.509900000000     0.784400000000     0.163935   
H114     H      0.537700000000     0.792400000000     0.786000000000     0.0503754  
H115     H      0.375200000000     0.669800000000     0.855600000000     0.0660338  
H116     H      0.988200000000     0.205800000000     0.456600000000     0.0549003  
H117     H      0.006400000000     0.462300000000     0.214000000000     0.0503607  
H118     H      0.825000000000     0.905800000000     0.270600000000     0.0907451  
H119     H      0.485700000000     0.308400000000     0.551200000000     0.0848337  
H120     H      0.669800000000     0.480400000000     0.855600000000     0.0660462  
H121     H      0.207600000000     0.751700000000     0.214000000000     0.0503661  
H122     H      0.536100000000     0.817700000000     0.449200000000     0.0911132  
H123     H      0.260600000000     0.940100000000     0.815600000000     0.143435   
H124     H      0.757200000000     0.514300000000     0.448800000000     0.0848293  
H125     H      0.677900000000     0.498600000000     0.173200000000     0.264049   
H126     H      0.770700000000     0.291400000000     0.856000000000     0.0780318  
H127     H      0.242800000000     0.485700000000     0.551200000000     0.0848296  
H128     H      0.875500000000     0.260600000000     0.815600000000     0.143445   
C1       C      0.706330000000     0.229200000000     0.788800000000     0.108612   
C2       C      0.711350000000     0.819680000000     0.159060000000     0.0129704  
C3       C      0.930550000000     0.697690000000     0.456840000000     0.102875   
C4       C      0.445040000000     0.345550000000     0.236420000000    -0.0673293  
C5       C      0.481680000000     0.300630000000     0.647860000000     0.00680692 
C6       C      0.855750000000     0.202480000000     0.740880000000     0.130451   
C7       C      0.461600000000     0.144250000000     0.259120000000     0.130431   
C8       C      0.178750000000     0.479850000000     0.241240000000     0.100911   
C9       C      0.131370000000     0.388710000000     0.872300000000    -0.0630852  
C10      C      0.472380000000     0.224020000000     0.651900000000     0.401859   
C11      C      0.527620000000     0.775980000000     0.348100000000     0.401862   
C12      C      0.640040000000     0.309500000000     0.156420000000     0.00758385 
C13      C      0.697690000000     0.526290000000     0.456840000000     0.102888   
C14      C      0.851740000000     0.203210000000     0.323680000000     0.0545899  
C15      C      0.485830000000     0.147970000000     0.763360000000     0.393165   
C16      C      0.770080000000     0.214800000000     0.763020000000    -0.0140003  
C17      C      0.468550000000     0.219560000000     0.452720000000    -0.017744   
C18      C      0.535120000000     0.834270000000     0.642760000000    -0.0554713  
C19      C      0.774520000000     0.168690000000     0.724620000000     0.0989634  
C20      C      0.808490000000     0.535120000000     0.642760000000    -0.05547    
C21      C      0.552290000000     0.660620000000     0.840940000000     0.012935   
C22      C      0.120470000000     0.851740000000     0.323680000000     0.0545875  
C23      C      0.165730000000     0.892360000000     0.357240000000    -0.0554732  
C24      C      0.796790000000     0.528060000000     0.676320000000     0.0546112  
C25      C      0.099250000000     0.351080000000     0.568720000000    -0.0665395  
C26      C      0.761210000000     0.841520000000     0.210000000000    -0.0674712  
C27      C      0.743390000000     0.364340000000     0.918320000000     0.396281   
C28      C      0.831310000000     0.049900000000     0.275380000000     0.0989399  
C29      C      0.241440000000     0.777680000000     0.754280000000    -0.0279399  
C30      C      0.503070000000     0.942130000000     0.189560000000     0.0988047  
C31      C      0.225480000000     0.831310000000     0.275380000000     0.0989458  
C32      C      0.277530000000     0.615390000000     0.763360000000     0.393193   
C33      C      0.834910000000     0.529020000000     0.724880000000    -0.0918024  
C34      C      0.752570000000     0.496930000000     0.810440000000     0.0988808  
C35      C      0.761310000000     0.474770000000     0.920680000000     0.39821    
C36      C      0.885130000000     0.538400000000     0.740880000000     0.130452   
C37      C      0.238790000000     0.158480000000     0.790000000000    -0.0674013  
C38      C      0.921840000000     0.715590000000     0.219600000000    -0.068299   
C39      C      0.297760000000     0.504010000000     0.219600000000    -0.0683127  
C40      C      0.373450000000     0.473760000000     0.621480000000    -0.0614858  
C41      C      0.554960000000     0.654450000000     0.763580000000    -0.067344   
C42      C      0.782420000000     0.813900000000     0.239120000000     0.40231    
C43      C      0.308890000000     0.152760000000     0.865360000000    -0.064417   
C44      C      0.531450000000     0.780440000000     0.547280000000    -0.0177437  
C45      C      0.259070000000     0.516410000000     0.127700000000    -0.0631744  
C46      C      0.293380000000     0.086410000000     0.568840000000    -0.070389   
C47      C      0.820480000000     0.572120000000     0.348100000000     0.401885   
C48      C      0.890870000000     0.445040000000     0.236420000000    -0.0673231  
C49      C      0.293670000000     0.770800000000     0.211200000000     0.10856    
C50      C      0.660620000000     0.288650000000     0.840940000000     0.0129028  
C51      C      0.345550000000     0.791380000000     0.236420000000    -0.0673334  
C52      C      0.706620000000     0.913590000000     0.431160000000    -0.0703866  
C53      C      0.222320000000     0.487160000000     0.245720000000    -0.0279534  
C54      C      0.202480000000     0.885130000000     0.740880000000     0.130448   
C55      C      0.456700000000     0.425220000000     0.239120000000     0.402304   
C56      C      0.889970000000     0.195860000000     0.724880000000    -0.0918062  
C57      C      0.180320000000     0.552290000000     0.840940000000     0.012918   
C58      C      0.858790000000     0.544330000000     0.659220000000     0.0529458  
C59      C      0.676770000000     0.864570000000     0.378240000000    -0.0575127  
C60      C      0.525230000000     0.840630000000     0.079320000000     0.398294   
C61      C      0.057570000000     0.767810000000     0.590800000000     0.0938377  
C62      C      0.278460000000     0.103560000000     0.839320000000    -0.0721425  
C63      C      0.652770000000     0.518320000000     0.352140000000     0.00682232 
C64      C      0.810610000000     0.162410000000     0.708640000000    -0.0814853  
C65      C      0.007060000000     0.451780000000     0.236980000000    -0.0139936  
C66      C      0.186100000000     0.543300000000     0.760880000000     0.402319   
C67      C      0.885110000000     0.141210000000     0.340780000000     0.0529223  
C68      C      0.868630000000     0.611290000000     0.127700000000    -0.063186   
C69      C      0.516410000000     0.868630000000     0.127700000000    -0.0632124  
C70      C      0.083720000000     0.366080000000     0.856540000000    -0.0626886  
C71      C      0.800430000000     0.114890000000     0.659220000000     0.0529438  
C72      C      0.841520000000     0.448790000000     0.210000000000    -0.067468   
C73      C      0.256610000000     0.635660000000     0.081680000000     0.396315   
C74      C      0.114870000000     0.461600000000     0.259120000000     0.130431   
C75      C      0.049900000000     0.444070000000     0.275380000000     0.0989461  
C76      C      0.834270000000     0.107640000000     0.642760000000    -0.0554663  
C77      C      0.444070000000     0.225480000000     0.275380000000     0.0989517  
C78      C      0.109130000000     0.554960000000     0.763580000000    -0.0673494  
C79      C      0.528060000000     0.879530000000     0.676320000000     0.054605   
C80      C      0.504010000000     0.921840000000     0.219600000000    -0.0683     
C81      C      0.302310000000     0.473710000000     0.543160000000     0.102887   
C82      C      0.984170000000     0.233160000000     0.452720000000    -0.0177951  
C83      C      0.135430000000     0.298530000000     0.621760000000    -0.0575217  
C84      C      0.069450000000     0.302310000000     0.543160000000     0.10288    
C85      C      0.443530000000     0.287400000000     0.134640000000    -0.0645184  
C86      C      0.529020000000     0.889970000000     0.724880000000    -0.0918102  
C87      C      0.514170000000     0.852030000000     0.236640000000     0.393178   
C88      C      0.284410000000     0.702240000000     0.780400000000    -0.0683141  
C89      C      0.165090000000     0.470980000000     0.275120000000    -0.0918035  
C90      C      0.766840000000     0.531450000000     0.547280000000    -0.0177444  
C91      C      0.715590000000     0.297760000000     0.219600000000    -0.0682984  
C92      C      0.177010000000     0.942430000000     0.409200000000     0.0938477  
C93      C      0.451780000000     0.229920000000     0.236980000000    -0.0140135  
C94      C      0.821250000000     0.520150000000     0.758760000000     0.10092    
C95      C      0.913590000000     0.724540000000     0.431160000000    -0.0703759  
C96      C      0.937510000000     0.238610000000     0.758760000000     0.10093    
C97      C      0.082470000000     0.559600000000     0.788800000000     0.108604   
C98      C      0.772820000000     0.490460000000     0.856540000000    -0.062694   
C99      C      0.208620000000     0.109130000000     0.763580000000    -0.0673533  
C100     C      0.722470000000     0.384610000000     0.236640000000     0.393198   
C101     C      0.023400000000     0.758560000000     0.245720000000    -0.0279288  
C102     C      0.240850000000     0.069450000000     0.543160000000     0.102888   
C103     C      0.482430000000     0.293380000000     0.568840000000    -0.0703905  
C104     C      0.110030000000     0.804140000000     0.275120000000    -0.0917971  
C105     C      0.518320000000     0.699370000000     0.352140000000     0.00681231 
C106     C      0.992940000000     0.548220000000     0.763020000000    -0.0140574  
C107     C      0.976600000000     0.241440000000     0.754280000000    -0.0279977  
C108     C      0.473710000000     0.240850000000     0.543160000000     0.102892   
C109     C      0.670980000000     0.488570000000     0.796420000000    -0.0595276  
C110     C      0.247430000000     0.503070000000     0.189560000000     0.0988302  
C111     C      0.635660000000     0.825070000000     0.081680000000     0.396387   
C112     C      0.648920000000     0.530530000000     0.431280000000    -0.0665458  
C113     C      0.574780000000     0.217580000000     0.760880000000     0.402286   
C114     C      0.813900000000     0.456700000000     0.239120000000     0.402328   
C115     C      0.845610000000     0.728870000000     0.348040000000     0.393915   
C116     C      0.168690000000     0.950100000000     0.724620000000     0.0989714  
C117     C      0.152760000000     0.556470000000     0.865360000000    -0.0644228  
C118     C      0.767810000000     0.533230000000     0.590800000000     0.0938483  
C119     C      0.900750000000     0.648920000000     0.431280000000    -0.0665377  
C120     C      0.275460000000     0.482430000000     0.568840000000    -0.0703806  
C121     C      0.692150000000     0.329020000000     0.203580000000    -0.0595934  
C122     C      0.712600000000     0.308890000000     0.865360000000    -0.0644125  
C123     C      0.544330000000     0.800430000000     0.659220000000     0.052949   
C124     C      0.490460000000     0.083720000000     0.856540000000    -0.0626945  
C125     C      0.686490000000     0.247430000000     0.189560000000     0.0988177  
C126     C      0.825070000000     0.446020000000     0.081680000000     0.396324   
C127     C      0.942430000000     0.232190000000     0.409200000000     0.0938471  
C128     C      0.471940000000     0.120470000000     0.323680000000     0.0545963  
C129     C      0.804140000000     0.165090000000     0.275120000000    -0.0918     
C130     C      0.144250000000     0.797520000000     0.259120000000     0.130424   
C131     C      0.232190000000     0.466770000000     0.409200000000     0.093843   
C132     C      0.556470000000     0.712600000000     0.865360000000    -0.0644677  
C133     C      0.464880000000     0.165730000000     0.357240000000    -0.0554693  
C134     C      0.699370000000     0.833820000000     0.352140000000     0.00680845 
C135     C      0.309500000000     0.516380000000     0.156420000000     0.00757045 
C136     C      0.248030000000     0.147720000000     0.621480000000    -0.0614754  
C137     C      0.690500000000     0.483620000000     0.843580000000     0.0075354  
C138     C      0.103560000000     0.560860000000     0.839320000000    -0.0721415  
C139     C      0.572120000000     0.527620000000     0.348100000000     0.401867   
C140     C      0.479850000000     0.062490000000     0.241240000000     0.1009     
C141     C      0.313510000000     0.752570000000     0.810440000000     0.0988594  
C142     C      0.199570000000     0.885110000000     0.340780000000     0.052925   
C143     C      0.751970000000     0.852280000000     0.378520000000    -0.0614818  
C144     C      0.555930000000     0.774520000000     0.724620000000     0.0989646  
C145     C      0.086410000000     0.275460000000     0.568840000000    -0.0703779  
C146     C      0.728870000000     0.502430000000     0.348040000000     0.393934   
C147     C      0.777680000000     0.512840000000     0.754280000000    -0.0279394  
C148     C      0.229920000000     0.785200000000     0.236980000000    -0.0140125  
C149     C      0.633920000000     0.227180000000     0.143460000000    -0.0626487  
C150     C      0.153080000000     0.359960000000     0.843580000000     0.00754446 
C151     C      0.701470000000     0.513670000000     0.378240000000    -0.0575278  
C152     C      0.538400000000     0.855750000000     0.740880000000     0.130453   
C153     C      0.486330000000     0.323230000000     0.621760000000    -0.057509   
C154     C      0.512840000000     0.976600000000     0.754280000000    -0.0279956  
C155     C      0.148260000000     0.796790000000     0.676320000000     0.0546063  
C156     C      0.469470000000     0.217640000000     0.568720000000    -0.0665531  
C157     C      0.879530000000     0.148260000000     0.676320000000     0.0546003  
C158     C      0.502430000000     0.619170000000     0.348040000000     0.393907   
C159     C      0.530530000000     0.782360000000     0.431280000000    -0.0665491  
C160     C      0.015830000000     0.766840000000     0.547280000000    -0.0177275  
C161     C      0.466770000000     0.177010000000     0.409200000000     0.0938427  
C162     C      0.159370000000     0.445910000000     0.920680000000     0.398205   
C163     C      0.107640000000     0.808490000000     0.642760000000    -0.0554646  
C164     C      0.615390000000     0.485830000000     0.763360000000     0.393167   
C165     C      0.791380000000     0.890870000000     0.236420000000    -0.0673142  
C166     C      0.339380000000     0.711350000000     0.159060000000     0.0129408  
C167     C      0.553980000000     0.743390000000     0.918320000000     0.396385   
C168     C      0.721540000000     0.896440000000     0.160680000000    -0.0720825  
C169     C      0.351080000000     0.469470000000     0.568720000000    -0.0665488  
C170     C      0.619170000000     0.845610000000     0.348040000000     0.393899   
C171     C      0.797520000000     0.114870000000     0.259120000000     0.130422   
C172     C      0.307850000000     0.670980000000     0.796420000000    -0.0595533  
C173     C      0.495990000000     0.078160000000     0.780400000000    -0.0683357  
C174     C      0.388710000000     0.740930000000     0.872300000000    -0.0631293  
C175     C      0.224020000000     0.179520000000     0.651900000000     0.401837   
C176     C      0.298530000000     0.486330000000     0.621760000000    -0.0575252  
C177     C      0.833820000000     0.652770000000     0.352140000000     0.00682643 
C178     C      0.323230000000     0.135430000000     0.621760000000    -0.0575064  
C179     C      0.446020000000     0.256610000000     0.081680000000     0.396355   
C180     C      0.474770000000     0.159370000000     0.920680000000     0.398198   
C181     C      0.917530000000     0.440400000000     0.211200000000     0.108549   
C182     C      0.551210000000     0.631520000000     0.790000000000    -0.0674147  
C183     C      0.078160000000     0.284410000000     0.780400000000    -0.0683252  
C184     C      0.950100000000     0.555930000000     0.724620000000     0.0989724  
C185     C      0.174930000000     0.553980000000     0.918320000000     0.39629    
C186     C      0.427880000000     0.472380000000     0.651900000000     0.401864   
C187     C      0.758560000000     0.222320000000     0.245720000000    -0.0279538  
C188     C      0.548220000000     0.770080000000     0.763020000000    -0.0140043  
C189     C      0.147970000000     0.277530000000     0.763360000000     0.3932     
C190     C      0.141210000000     0.455670000000     0.340780000000     0.0529359  
C191     C      0.822990000000     0.057570000000     0.590800000000     0.093838   
C192     C      0.219560000000     0.984170000000     0.452720000000    -0.0177955  
C193     C      0.509540000000     0.916280000000     0.143460000000    -0.062639   
C194     C      0.702240000000     0.495990000000     0.780400000000    -0.0683377  
C195     C      0.125440000000     0.307850000000     0.796420000000    -0.0595404  
C196     C      0.496930000000     0.057870000000     0.810440000000     0.0988811  
C197     C      0.511430000000     0.874560000000     0.203580000000    -0.0595934  
C198     C      0.057870000000     0.313510000000     0.810440000000     0.0988777  
C199     C      0.488570000000     0.125440000000     0.796420000000    -0.0595276  
C200     C      0.440400000000     0.293670000000     0.211200000000     0.108558   
C201     C      0.497570000000     0.380830000000     0.651960000000     0.393904   
C202     C      0.217580000000     0.186100000000     0.760880000000     0.402297   
C203     C      0.162410000000     0.898030000000     0.708640000000    -0.081492   
C204     C      0.238610000000     0.821250000000     0.758760000000     0.100917   
C205     C      0.654450000000     0.208620000000     0.763580000000    -0.0673609  
C206     C      0.846920000000     0.640040000000     0.156420000000     0.00758323 
C207     C      0.425220000000     0.782420000000     0.239120000000     0.402295   
C208     C      0.626550000000     0.526240000000     0.378520000000    -0.0614876  
C209     C      0.229200000000     0.082470000000     0.788800000000     0.108607   
C210     C      0.770800000000     0.917530000000     0.211200000000     0.108532   
C211     C      0.761390000000     0.178750000000     0.241240000000     0.100905   
C212     C      0.487160000000     0.023400000000     0.245720000000    -0.0279291  
C213     C      0.364340000000     0.174930000000     0.918320000000     0.396287   
C214     C      0.455670000000     0.199570000000     0.340780000000     0.0529372  
C215     C      0.546230000000     0.810610000000     0.708640000000    -0.0814894  
C216     C      0.264240000000     0.721540000000     0.160680000000    -0.0721125  
C217     C      0.366080000000     0.772820000000     0.856540000000    -0.0626618  
C218     C      0.847240000000     0.443530000000     0.134640000000    -0.0645157  
C219     C      0.483590000000     0.131370000000     0.872300000000    -0.0630833  
C220     C      0.347230000000     0.481680000000     0.647860000000     0.00681732 
C221     C      0.158480000000     0.551210000000     0.790000000000    -0.0674141  
C222     C      0.203210000000     0.471940000000     0.323680000000     0.054599   
C223     C      0.516380000000     0.846920000000     0.156420000000     0.00759091 
C224     C      0.837590000000     0.101970000000     0.291360000000    -0.0814834  
C225     C      0.445910000000     0.761310000000     0.920680000000     0.398284   
C226     C      0.775980000000     0.820480000000     0.348100000000     0.40184    
C227     C      0.520150000000     0.937510000000     0.758760000000     0.100932   
C228     C      0.533230000000     0.822990000000     0.590800000000     0.0938477  
C229     C      0.483620000000     0.153080000000     0.843580000000     0.00753579 
C230     C      0.942130000000     0.686490000000     0.189560000000     0.0988097  
C231     C      0.101970000000     0.453770000000     0.291360000000    -0.0814854  
C232     C      0.380830000000     0.154390000000     0.651960000000     0.393896   
C233     C      0.359960000000     0.690500000000     0.843580000000     0.00756505 
C234     C      0.892360000000     0.191510000000     0.357240000000    -0.0554725  
C235     C      0.470980000000     0.110030000000     0.275120000000    -0.091801   
C236     C      0.554090000000     0.238690000000     0.079320000000     0.398256   
C237     C      0.840630000000     0.554090000000     0.079320000000     0.398239   
C238     C      0.898030000000     0.546230000000     0.708640000000    -0.0814946  
C239     C      0.233160000000     0.468550000000     0.452720000000    -0.0177457  
C240     C      0.147720000000     0.373450000000     0.621480000000    -0.0614966  
C241     C      0.195860000000     0.834910000000     0.724880000000    -0.0917985  
C242     C      0.384610000000     0.514170000000     0.236640000000     0.393175   
C243     C      0.517570000000     0.706620000000     0.431160000000    -0.0703869  
C244     C      0.217640000000     0.099250000000     0.568720000000    -0.0665523  
C245     C      0.559600000000     0.706330000000     0.788800000000     0.108591   
C246     C      0.271130000000     0.497570000000     0.651960000000     0.393932   
C247     C      0.368480000000     0.761210000000     0.210000000000    -0.0674456  
C248     C      0.439140000000     0.264240000000     0.160680000000    -0.0721016  
C249     C      0.166180000000     0.347230000000     0.647860000000     0.00682073 
C250     C      0.735760000000     0.278460000000     0.839320000000    -0.0721495  
C251     C      0.329020000000     0.511430000000     0.203580000000    -0.0595754  
C252     C      0.526240000000     0.751970000000     0.378520000000    -0.0614832  
C253     C      0.189390000000     0.837590000000     0.291360000000    -0.0814846  
C254     C      0.062490000000     0.761390000000     0.241240000000     0.100895   
C255     C      0.214800000000     0.992940000000     0.763020000000    -0.0140684  
C256     C      0.691110000000     0.847240000000     0.134640000000    -0.0645482  
C257     C      0.227180000000     0.509540000000     0.143460000000    -0.0626605  
C258     C      0.473760000000     0.248030000000     0.621480000000    -0.0614799  
C259     C      0.526290000000     0.759150000000     0.456840000000     0.102891   
C260     C      0.288650000000     0.180320000000     0.840940000000     0.0129113  
C261     C      0.852030000000     0.722470000000     0.236640000000     0.393209   
C262     C      0.780440000000     0.015830000000     0.547280000000    -0.0177285  
C263     C      0.191510000000     0.464880000000     0.357240000000    -0.0554691  
C264     C      0.896440000000     0.439140000000     0.160680000000    -0.0721061  
C265     C      0.874560000000     0.692150000000     0.203580000000    -0.0595988  
C266     C      0.238690000000     0.525230000000     0.079320000000     0.398243   
C267     C      0.759150000000     0.930550000000     0.456840000000     0.102881   
C268     C      0.819680000000     0.447710000000     0.159060000000     0.0129572  
C269     C      0.611290000000     0.259070000000     0.127700000000    -0.0631883  
C270     C      0.154390000000     0.271130000000     0.651960000000     0.393912   
C271     C      0.852280000000     0.626550000000     0.378520000000    -0.0615016  
C272     C      0.448790000000     0.368480000000     0.210000000000    -0.0674519  
C273     C      0.287400000000     0.691110000000     0.134640000000    -0.0645008  
C274     C      0.782360000000     0.900750000000     0.431280000000    -0.0665495  
C275     C      0.631520000000     0.238790000000     0.790000000000    -0.067393   
C276     C      0.543300000000     0.574780000000     0.760880000000     0.402299   
C277     C      0.114890000000     0.858790000000     0.659220000000     0.052939   
C278     C      0.560860000000     0.735760000000     0.839320000000    -0.072114   
C279     C      0.740930000000     0.483590000000     0.872300000000    -0.0630869  
C280     C      0.453770000000     0.189390000000     0.291360000000    -0.0814876  
C281     C      0.785200000000     0.007060000000     0.236980000000    -0.0140032  
C282     C      0.179520000000     0.427880000000     0.651900000000     0.401882   
C283     C      0.916280000000     0.633920000000     0.143460000000    -0.0626537  
C284     C      0.513670000000     0.676770000000     0.378240000000    -0.0575115  
C285     C      0.864570000000     0.701470000000     0.378240000000    -0.0575279  
C286     C      0.724540000000     0.517570000000     0.431160000000    -0.0703773  
C287     C      0.300630000000     0.166180000000     0.647860000000     0.00680237 
C288     C      0.447710000000     0.339380000000     0.159060000000     0.0129532  
N1       N      0.314310000000     0.836790000000     0.831020000000    -0.0430064  
N2       N      0.798760000000     0.968230000000     0.239940000000    -0.0973606  
N3       N      0.575000000000     0.705940000000     0.721360000000    -0.0449737  
N4       N      0.522550000000     0.949240000000     0.806500000000    -0.107039   
N5       N      0.213600000000     0.493240000000     0.203760000000    -0.0888781  
N6       N      0.716050000000     0.142740000000     0.193500000000    -0.107054   
N7       N      0.990160000000     0.710520000000     0.203760000000    -0.0889056  
N8       N      0.047460000000     0.721400000000     0.579920000000    -0.0814089  
N9       N      0.009840000000     0.289480000000     0.796240000000    -0.0888426  
N10      N      0.037500000000     0.429000000000     0.302500000000    -0.0816559  
N11      N      0.308460000000     0.471600000000     0.470400000000    -0.0394319  
N12      N      0.005770000000     0.685690000000     0.168980000000    -0.0430349  
N13      N      0.728290000000     0.201240000000     0.760060000000    -0.0973494  
N14      N      0.916400000000     0.526100000000     0.780400000000    -0.290906   
N15      N      0.691540000000     0.528400000000     0.529600000000    -0.0394287  
N16      N      0.209220000000     0.018510000000     0.489020000000    -0.0899592  
N17      N      0.685690000000     0.163210000000     0.168980000000    -0.0430451  
N18      N      0.015420000000     0.575000000000     0.721360000000    -0.0449697  
N19      N      0.271710000000     0.798760000000     0.239940000000    -0.0973496  
N20      N      0.981490000000     0.720200000000     0.510980000000    -0.0900066  
N21      N      0.473900000000     0.136000000000     0.219600000000    -0.290891   
N22      N      0.467540000000     0.141480000000     0.420080000000    -0.0814146  
N23      N      0.529490000000     0.790780000000     0.510980000000    -0.0899858  
N24      N      0.962500000000     0.571000000000     0.697500000000    -0.0816745  
N25      N      0.283950000000     0.857260000000     0.806500000000    -0.107032   
N26      N      0.429000000000     0.265000000000     0.302500000000    -0.0816619  
N27      N      0.516710000000     0.994230000000     0.831020000000    -0.043035   
N28      N      0.050760000000     0.716050000000     0.193500000000    -0.10705    
N29      N      0.279800000000     0.470510000000     0.489020000000    -0.089986   
N30      N      0.477450000000     0.050760000000     0.193500000000    -0.107053   
N31      N      0.984580000000     0.425000000000     0.278640000000    -0.045011   
N32      N      0.294060000000     0.853640000000     0.278640000000    -0.0449937  
N33      N      0.571000000000     0.735000000000     0.697500000000    -0.0816537  
N34      N      0.994230000000     0.314310000000     0.831020000000    -0.0430323  
N35      N      0.864000000000     0.254300000000     0.780400000000    -0.290906   
N36      N      0.493240000000     0.990160000000     0.203760000000    -0.0889066  
N37      N      0.836790000000     0.516710000000     0.831020000000    -0.0430022  
N38      N      0.786400000000     0.506760000000     0.796240000000    -0.088878   
N39      N      0.278600000000     0.467540000000     0.420080000000    -0.081413   
N40      N      0.705940000000     0.146360000000     0.721360000000    -0.0449742  
N41      N      0.141480000000     0.952540000000     0.420080000000    -0.0814252  
N42      N      0.558820000000     0.728290000000     0.760060000000    -0.0973467  
N43      N      0.720200000000     0.529490000000     0.510980000000    -0.0899846  
N44      N      0.721400000000     0.532460000000     0.579920000000    -0.0814086  
N45      N      0.790780000000     0.981490000000     0.510980000000    -0.0900069  
N46      N      0.838060000000     0.001200000000     0.529600000000    -0.0394346  
N47      N      0.526100000000     0.864000000000     0.780400000000    -0.290905   
N48      N      0.710520000000     0.213600000000     0.203760000000    -0.0888772  
N49      N      0.001200000000     0.691540000000     0.529600000000    -0.039428   
N50      N      0.745700000000     0.083600000000     0.219600000000    -0.290888   
N51      N      0.735000000000     0.126500000000     0.697500000000    -0.0816544  
N52      N      0.506760000000     0.009840000000     0.796240000000    -0.0888475  
N53      N      0.873500000000     0.037500000000     0.302500000000    -0.0816681  
N54      N      0.483290000000     0.005770000000     0.168980000000    -0.0430375  
N55      N      0.853640000000     0.984580000000     0.278640000000    -0.0450133  
N56      N      0.126500000000     0.962500000000     0.697500000000    -0.0816815  
N57      N      0.470510000000     0.209220000000     0.489020000000    -0.0899873  
N58      N      0.265000000000     0.873500000000     0.302500000000    -0.0816695  
N59      N      0.949240000000     0.283950000000     0.806500000000    -0.107035   
N60      N      0.142740000000     0.477450000000     0.193500000000    -0.107052   
N61      N      0.163210000000     0.483290000000     0.168980000000    -0.04304    
N62      N      0.254300000000     0.916400000000     0.780400000000    -0.290905   
N63      N      0.136000000000     0.745700000000     0.219600000000    -0.29089    
N64      N      0.018510000000     0.279800000000     0.489020000000    -0.0899589  
N65      N      0.532460000000     0.858520000000     0.579920000000    -0.0814151  
N66      N      0.998800000000     0.308460000000     0.470400000000    -0.0394634  
N67      N      0.528400000000     0.838060000000     0.529600000000    -0.0394335  
N68      N      0.471600000000     0.161940000000     0.470400000000    -0.0394331  
N69      N      0.968230000000     0.441180000000     0.239940000000    -0.0973659  
N70      N      0.441180000000     0.271710000000     0.239940000000    -0.0973479  
N71      N      0.425000000000     0.294060000000     0.278640000000    -0.0449865  
N72      N      0.031770000000     0.558820000000     0.760060000000    -0.0973291  
N73      N      0.201240000000     0.031770000000     0.760060000000    -0.0973228  
N74      N      0.161940000000     0.998800000000     0.470400000000    -0.0394666  
N75      N      0.146360000000     0.015420000000     0.721360000000    -0.044964   
N76      N      0.952540000000     0.278600000000     0.420080000000    -0.0814228  
N77      N      0.858520000000     0.047460000000     0.579920000000    -0.0814164  
N78      N      0.857260000000     0.522550000000     0.806500000000    -0.107031   
N79      N      0.289480000000     0.786400000000     0.796240000000    -0.088875   
N80      N      0.083600000000     0.473900000000     0.219600000000    -0.290891   
O1       O      0.476170000000     0.205300000000     0.938480000000    -0.43209    
O2       O      0.229980000000     0.538620000000     0.785800000000    -0.444476   
O3       O      0.803910000000     0.467520000000     0.938820000000    -0.432249   
O4       O      0.770020000000     0.461380000000     0.214200000000    -0.444504   
O5       O      0.597170000000     0.483470000000     0.716420000000    -0.430796   
O6       O      0.229350000000     0.506190000000     0.629440000000    -0.429919   
O7       O      0.556970000000     0.789800000000     0.937580000000    -0.435439   
O8       O      0.210200000000     0.619390000000     0.062420000000    -0.435302   
O9       O      0.548030000000     0.719580000000     0.938080000000    -0.434366   
O10      O      0.380610000000     0.147780000000     0.937580000000    -0.435102   
O11      O      0.506190000000     0.400090000000     0.629440000000    -0.4299     
O12      O      0.493810000000     0.599910000000     0.370560000000    -0.429898   
O13      O      0.667650000000     0.485040000000     0.184260000000    -0.439368   
O14      O      0.767050000000     0.402830000000     0.283580000000    -0.430819   
O15      O      0.523620000000     0.746580000000     0.300400000000    -0.443642   
O16      O      0.550350000000     0.172940000000     0.713620000000    -0.445744   
O17      O      0.467520000000     0.134910000000     0.938820000000    -0.432181   
O18      O      0.549630000000     0.532170000000     0.372700000000    -0.444326   
O19      O      0.462310000000     0.733180000000     0.938480000000    -0.43212    
O20      O      0.516610000000     0.699220000000     0.184260000000    -0.43925    
O21      O      0.827060000000     0.836730000000     0.286380000000    -0.44577    
O22      O      0.609950000000     0.781500000000     0.061920000000    -0.434531   
O23      O      0.232950000000     0.597170000000     0.716420000000    -0.43081    
O24      O      0.619390000000     0.852220000000     0.062420000000    -0.435531   
O25      O      0.555820000000     0.247180000000     0.785800000000    -0.444447   
O26      O      0.483470000000     0.119250000000     0.716420000000    -0.430799   
O27      O      0.266820000000     0.523830000000     0.061520000000    -0.432281   
O28      O      0.800060000000     0.707290000000     0.302020000000    -0.432822   
O29      O      0.470430000000     0.530460000000     0.401820000000    -0.436341   
O30      O      0.446180000000     0.476380000000     0.699600000000    -0.443639   
O31      O      0.530460000000     0.931390000000     0.401820000000    -0.436354   
O32      O      0.871360000000     0.470430000000     0.401820000000    -0.436355   
O33      O      0.119250000000     0.232950000000     0.716420000000    -0.430814   
O34      O      0.746580000000     0.776780000000     0.300400000000    -0.443566   
O35      O      0.443030000000     0.210200000000     0.062420000000    -0.43538    
O36      O      0.449650000000     0.827060000000     0.286380000000    -0.445756   
O37      O      0.253420000000     0.223220000000     0.699600000000    -0.443564   
O38      O      0.483390000000     0.300780000000     0.815740000000    -0.439209   
O39      O      0.590960000000     0.485070000000     0.784600000000    -0.435103   
O40      O      0.292710000000     0.498040000000     0.697980000000    -0.432833   
O41      O      0.700470000000     0.409040000000     0.215400000000    -0.435162   
O42      O      0.205300000000     0.462310000000     0.938480000000    -0.43209    
O43      O      0.068610000000     0.128640000000     0.598180000000    -0.436344   
O44      O      0.840530000000     0.549630000000     0.372700000000    -0.444341   
O45      O      0.789800000000     0.380610000000     0.937580000000    -0.435121   
O46      O      0.332350000000     0.514960000000     0.815740000000    -0.439326   
O47      O      0.299530000000     0.590960000000     0.784600000000    -0.435135   
O48      O      0.752820000000     0.770020000000     0.214200000000    -0.444486   
O49      O      0.176930000000     0.159470000000     0.627300000000    -0.444321   
O50      O      0.223220000000     0.446180000000     0.699600000000    -0.443657   
O51      O      0.444180000000     0.752820000000     0.214200000000    -0.444475   
O52      O      0.770650000000     0.493810000000     0.370560000000    -0.429919   
O53      O      0.514930000000     0.806360000000     0.215400000000    -0.435134   
O54      O      0.459320000000     0.449650000000     0.286380000000    -0.445758   
O55      O      0.733180000000     0.476170000000     0.938480000000    -0.4321     
O56      O      0.553820000000     0.523620000000     0.300400000000    -0.443641   
O57      O      0.134910000000     0.471300000000     0.938820000000    -0.432237   
O58      O      0.163270000000     0.540680000000     0.713620000000    -0.445767   
O59      O      0.540680000000     0.550350000000     0.713620000000    -0.44575    
O60      O      0.538620000000     0.555820000000     0.785800000000    -0.444452   
O61      O      0.781500000000     0.451970000000     0.061920000000    -0.43452    
O62      O      0.199940000000     0.292710000000     0.697980000000    -0.432819   
O63      O      0.450370000000     0.467830000000     0.627300000000    -0.444328   
O64      O      0.836730000000     0.459320000000     0.286380000000    -0.445779   
O65      O      0.280420000000     0.609950000000     0.061920000000    -0.434512   
O66      O      0.806360000000     0.700470000000     0.215400000000    -0.435231   
O67      O      0.471300000000     0.803910000000     0.938820000000    -0.4325     
O68      O      0.400090000000     0.123250000000     0.629440000000    -0.429898   
O69      O      0.402830000000     0.516530000000     0.283580000000    -0.430804   
O70      O      0.476380000000     0.253420000000     0.699600000000    -0.44364    
O71      O      0.516530000000     0.880750000000     0.283580000000    -0.430814   
O72      O      0.528700000000     0.196090000000     0.061180000000    -0.432447   
O73      O      0.405270000000     0.199940000000     0.697980000000    -0.432794   
O74      O      0.196090000000     0.532480000000     0.061180000000    -0.432427   
O75      O      0.537690000000     0.266820000000     0.061520000000    -0.432287   
O76      O      0.469540000000     0.068610000000     0.598180000000    -0.436342   
O77      O      0.193640000000     0.299530000000     0.784600000000    -0.435202   
O78      O      0.523830000000     0.794700000000     0.061520000000    -0.432292   
O79      O      0.865090000000     0.528700000000     0.061180000000    -0.432428   
O80      O      0.599910000000     0.876750000000     0.370560000000    -0.429901   
O81      O      0.876750000000     0.770650000000     0.370560000000    -0.429913   
O82      O      0.794700000000     0.537690000000     0.061520000000    -0.432277   
O83      O      0.776780000000     0.553820000000     0.300400000000    -0.443659   
O84      O      0.529570000000     0.469540000000     0.598180000000    -0.43634    
O85      O      0.532170000000     0.823070000000     0.372700000000    -0.444329   
O86      O      0.823070000000     0.840530000000     0.372700000000    -0.444323   
O87      O      0.498040000000     0.405270000000     0.697980000000    -0.432797   
O88      O      0.390050000000     0.218500000000     0.938080000000    -0.434328   
O89      O      0.159470000000     0.450370000000     0.627300000000    -0.44434    
O90      O      0.719580000000     0.390050000000     0.938080000000    -0.434327   
O91      O      0.128640000000     0.529570000000     0.598180000000    -0.436351   
O92      O      0.300780000000     0.332350000000     0.815740000000    -0.439267   
O93      O      0.247180000000     0.229980000000     0.785800000000    -0.444455   
O94      O      0.409040000000     0.514930000000     0.215400000000    -0.43513    
O95      O      0.852220000000     0.443030000000     0.062420000000    -0.435313   
O96      O      0.147780000000     0.556970000000     0.937580000000    -0.435125   
O97      O      0.485070000000     0.193640000000     0.784600000000    -0.435105   
O98      O      0.218500000000     0.548030000000     0.938080000000    -0.434333   
O99      O      0.123250000000     0.229350000000     0.629440000000    -0.429909   
O100     O      0.880750000000     0.767050000000     0.283580000000    -0.43083    
O101     O      0.501960000000     0.594730000000     0.302020000000    -0.432799   
O102     O      0.514960000000     0.483390000000     0.815740000000    -0.439212   
O103     O      0.461380000000     0.444180000000     0.214200000000    -0.444478   
O104     O      0.451970000000     0.280420000000     0.061920000000    -0.434535   
O105     O      0.931390000000     0.871360000000     0.401820000000    -0.43636    
O106     O      0.707290000000     0.501960000000     0.302020000000    -0.432836   
O107     O      0.172940000000     0.163270000000     0.713620000000    -0.445754   
O108     O      0.467830000000     0.176930000000     0.627300000000    -0.444329   
O109     O      0.485040000000     0.516610000000     0.184260000000    -0.439253   
O110     O      0.699220000000     0.667650000000     0.184260000000    -0.43931    
O111     O      0.532480000000     0.865090000000     0.061180000000    -0.432604   
O112     O      0.594730000000     0.800060000000     0.302020000000    -0.432797   


