data_[CoreMOF]XALCUJ_clean

_audit_creation_method RASPA-1.0
_audit_creation_date 2025-1-26
_audit_author_name ''

_cell_length_a    17.4393
_cell_length_b    30.1741
_cell_length_c    30.1741
_cell_angle_alpha 85.2098
_cell_angle_beta  73.2032
_cell_angle_gamma 73.2033
_cell_volume      14552.1

_symmetry_cell_setting          triclinic
_symmetry_space_group_name_Hall 'P 1'
_symmetry_space_group_name_H-M  'P 1'
_symmetry_Int_Tables_number     1

_symmetry_equiv_pos_as_xyz 'x,y,z'

loop_
_atom_site_label
_atom_site_type_symbol
_atom_site_fract_x
_atom_site_fract_y
_atom_site_fract_z
_atom_site_charge
Mn1      Mn     0.588800000000     0.916470000000     0.356660000000     0.0750787  
Mn2      Mn     0.760730000000     0.882260000000     0.464060000000     0.0733481  
Mn3      Mn     0.296460000000     0.998110000000     0.422010000000     0.136316   
Mn4      Mn     0.361940000000     0.583530000000     0.143340000000    -0.0483034  
Mn5      Mn     0.607050000000     0.617740000000     0.035940000000     0.117929   
Mn6      Mn     0.216580000000     0.501890000000     0.077990000000    -0.00840863 
Mn7      Mn     0.945470000000     0.643340000000     0.416460000000     0.172471   
Mn8      Mn     0.224790000000     0.535940000000     0.382260000000     0.16649    
Mn9      Mn     0.718470000000     0.577990000000     0.498110000000    -0.0796322  
Mn10     Mn     0.505270000000     0.856660000000     0.083540000000    -0.0690778  
Mn11     Mn     0.642990000000     0.964060000000     0.117740000000     0.20732    
Mn12     Mn     0.294570000000     0.922010000000     0.001890000000     0.208858   
Mn13     Mn     0.411200000000     0.083530000000     0.643340000000    -0.15582    
Mn14     Mn     0.239270000000     0.117740000000     0.535940000000    -0.159083   
Mn15     Mn     0.703540000000     0.001890000000     0.577990000000     0.326775   
Mn16     Mn     0.638060000000     0.416470000000     0.856660000000     0.332484   
Mn17     Mn     0.392950000000     0.382260000000     0.964060000000     0.323339   
Mn18     Mn     0.783420000000     0.498110000000     0.922010000000     0.142054   
Mn19     Mn     0.054530000000     0.356660000000     0.583540000000    -0.037545   
Mn20     Mn     0.775210000000     0.464060000000     0.617740000000     0.127164   
Mn21     Mn     0.281530000000     0.422010000000     0.501890000000    -0.00623116 
Mn22     Mn     0.494730000000     0.143340000000     0.916460000000     0.192093   
Mn23     Mn     0.357010000000     0.035940000000     0.882260000000     0.184849   
Mn24     Mn     0.705430000000     0.077990000000     0.998110000000    -0.102636   
H1       H      0.589200000000     0.784900000000     0.309900000000    -0.089887   
H2       H      0.668000000000     0.711100000000     0.317500000000     0.249207   
H3       H      0.759500000000     0.696600000000     0.363200000000     0.249243   
H4       H      0.768000000000     0.756900000000     0.401100000000    -0.21009    
H5       H      0.613500000000     0.027900000000     0.433500000000    -0.213187   
H6       H      0.682700000000     0.993100000000     0.452700000000     0.413913   
H7       H      0.718000000000     0.024600000000     0.359000000000     0.41479    
H8       H      0.785400000000     0.996100000000     0.383300000000     0.417769   
H9       H      0.710200000000     0.068200000000     0.436400000000    -0.00867976 
H10      H      0.711100000000     0.089500000000     0.387300000000     0.100975   
H11      H      0.829700000000     0.044200000000     0.418200000000     0.0908888  
H12      H      0.834700000000     0.059900000000     0.367300000000    -0.02882    
H13      H      0.768000000000     0.141900000000     0.407300000000     0.0653985  
H14      H      0.819000000000     0.116700000000     0.441700000000     0.0681618  
H15      H      0.865100000000     0.121800000000     0.389400000000     0.14851    
H16      H      0.778400000000     0.914600000000     0.334200000000    -0.06077    
H17      H      0.895000000000     0.915200000000     0.275600000000     0.125538   
H18      H      0.773200000000     0.903700000000     0.185100000000    -0.00989878 
H19      H      0.656900000000     0.906900000000     0.246100000000     0.0734491  
H20      H      0.908000000000     0.937600000000     0.163400000000     0.0782893  
H21      H      0.932800000000     0.883600000000     0.161600000000     0.104371   
H22      H      0.973400000000     0.901900000000     0.353900000000     0.0965187  
H23      H      0.066600000000     0.942100000000     0.352700000000    -0.0417073  
H24      H      0.054600000000     0.985900000000     0.416300000000    -0.057506   
H25      H      0.941700000000     0.989100000000     0.480500000000     0.151047   
H26      H      0.522600000000     0.925800000000     0.575000000000     0.138652   
H27      H      0.565500000000     0.943100000000     0.606500000000     0.0746223  
H28      H      0.519800000000     0.877900000000     0.638300000000     0.0739552  
H29      H      0.581000000000     0.848700000000     0.595100000000     0.0651571  
H30      H      0.695600000000     0.855300000000     0.616300000000    -0.013681   
H31      H      0.636800000000     0.887800000000     0.657600000000     0.091669   
H32      H      0.645600000000     0.792800000000     0.653000000000     0.108979   
H33      H      0.585800000000     0.825300000000     0.694100000000    -0.00340008 
H34      H      0.761600000000     0.801900000000     0.672900000000     0.0750793  
H35      H      0.700800000000     0.833100000000     0.714900000000     0.0733486  
H36      H      0.705500000000     0.780500000000     0.714300000000     0.136314   
H37      H      0.209000000000     0.072000000000     0.308600000000    -0.0483018  
H38      H      0.269500000000     0.069200000000     0.229800000000     0.117927   
H39      H      0.405300000000     0.023800000000     0.199200000000    -0.00840706 
H40      H      0.478500000000     0.982500000000     0.248700000000     0.172471   
H41      H      0.456000000000     0.916600000000     0.508400000000     0.166491   
H42      H      0.522100000000     0.889800000000     0.465000000000    -0.0796322  
H43      H      0.446000000000     0.842000000000     0.515600000000    -0.0690778  
H44      H      0.365100000000     0.872300000000     0.503500000000     0.20732    
H45      H      0.504800000000     0.818500000000     0.437900000000     0.208858   
H46      H      0.423600000000     0.848500000000     0.426100000000    -0.15582    
H47      H      0.428900000000     0.769700000000     0.484100000000    -0.159083   
H48      H      0.348600000000     0.799300000000     0.471100000000     0.326774   
H49      H      0.426400000000     0.776800000000     0.391600000000     0.332483   
H50      H      0.393800000000     0.738700000000     0.423700000000     0.323338   
H51      H      0.487300000000     0.738600000000     0.413200000000     0.142056   
H52      H      0.137300000000     0.980600000000     0.071200000000    -0.0375467  
H53      H      0.033800000000     0.978900000000     0.137500000000     0.127165   
H54      H      0.112400000000     0.842000000000     0.133600000000    -0.00623321 
H55      H      0.214000000000     0.846400000000     0.067200000000     0.192093   
H56      H      0.015600000000     0.879500000000     0.206500000000     0.184851   
H57      H      0.989800000000     0.933800000000     0.209400000000    -0.102636   
H58      H      0.184000000000     0.715100000000     0.190100000000    -0.0898872  
H59      H      0.196600000000     0.788900000000     0.182500000000     0.249209   
H60      H      0.319300000000     0.803400000000     0.136800000000     0.249246   
H61      H      0.426000000000     0.743100000000     0.098900000000    -0.210091   
H62      H      0.574900000000     0.472100000000     0.066500000000    -0.213188   
H63      H      0.628500000000     0.506900000000     0.047300000000     0.413915   
H64      H      0.601600000000     0.475400000000     0.141000000000     0.414791   
H65      H      0.664800000000     0.503900000000     0.116700000000     0.417772   
H66      H      0.714800000000     0.431800000000     0.063600000000    -0.00867971 
H67      H      0.687900000000     0.410500000000     0.112700000000     0.100975   
H68      H      0.792100000000     0.455800000000     0.081800000000     0.0908883  
H69      H      0.761900000000     0.440100000000     0.132700000000    -0.0288196  
H70      H      0.817200000000     0.358100000000     0.092700000000     0.0653981  
H71      H      0.877400000000     0.383300000000     0.058300000000     0.068161   
H72      H      0.876300000000     0.378200000000     0.110600000000     0.148521   
H73      H      0.527200000000     0.585400000000     0.165800000000    -0.0607781  
H74      H      0.585800000000     0.584800000000     0.224400000000     0.125546   
H75      H      0.362000000000     0.596300000000     0.314900000000    -0.00990566 
H76      H      0.309900000000     0.593100000000     0.253900000000     0.0734453  
H77      H      0.509000000000     0.562400000000     0.336600000000     0.0782865  
H78      H      0.478000000000     0.616400000000     0.338400000000     0.104371   
H79      H      0.729200000000     0.598100000000     0.146100000000     0.0965196  
H80      H      0.861400000000     0.557900000000     0.147300000000    -0.0417056  
H81      H      0.956800000000     0.514100000000     0.083700000000    -0.0575043  
H82      H      0.911300000000     0.510900000000     0.019500000000     0.151045   
H83      H      0.523400000000     0.574200000000     0.925000000000     0.138649   
H84      H      0.615100000000     0.556900000000     0.893500000000     0.0746238  
H85      H      0.536000000000     0.622100000000     0.861700000000     0.0739565  
H86      H      0.524800000000     0.651300000000     0.904900000000     0.0651588  
H87      H      0.667200000000     0.644700000000     0.883700000000    -0.013679   
H88      H      0.682200000000     0.612200000000     0.842400000000     0.0916681  
H89      H      0.591400000000     0.707200000000     0.847000000000     0.108978   
H90      H      0.605200000000     0.674700000000     0.805900000000    -0.00339955 
H91      H      0.736400000000     0.698100000000     0.827100000000     0.0750783  
H92      H      0.748800000000     0.666900000000     0.785100000000     0.0733474  
H93      H      0.700300000000     0.719500000000     0.785700000000     0.136314   
H94      H      0.089600000000     0.428000000000     0.191400000000    -0.0483018  
H95      H      0.068500000000     0.430800000000     0.270200000000     0.117927   
H96      H      0.128300000000     0.476200000000     0.300800000000    -0.00840749 
H97      H      0.209700000000     0.517500000000     0.251300000000     0.172472   
H98      H      0.381000000000     0.583400000000     0.991600000000     0.166492   
H99      H      0.376900000000     0.610200000000     0.035000000000    -0.0796325  
H100     H      0.303600000000     0.658000000000     0.984400000000    -0.0690783  
H101     H      0.240900000000     0.627700000000     0.996500000000     0.20732    
H102     H      0.261200000000     0.681500000000     0.062100000000     0.208858   
H103     H      0.198200000000     0.651500000000     0.073900000000    -0.15582    
H104     H      0.182700000000     0.730300000000     0.015900000000    -0.159083   
H105     H      0.119000000000     0.700700000000     0.028900000000     0.326775   
H106     H      0.094800000000     0.723200000000     0.108400000000     0.332484   
H107     H      0.056200000000     0.761300000000     0.076300000000     0.32334    
H108     H      0.139100000000     0.761400000000     0.086800000000     0.142054   
H109     H      0.689100000000     0.519400000000     0.428800000000    -0.0375452  
H110     H      0.650200000000     0.521100000000     0.362500000000     0.127163   
H111     H      0.588000000000     0.658000000000     0.366400000000    -0.00623221 
H112     H      0.627600000000     0.653600000000     0.432800000000     0.192091   
H113     H      0.601600000000     0.620500000000     0.293500000000     0.184847   
H114     H      0.633000000000     0.566200000000     0.290600000000    -0.102634   
H115     H      0.899100000000     0.690100000000     0.284900000000    -0.0898853  
H116     H      0.985500000000     0.682500000000     0.211100000000     0.249205   
H117     H      0.122700000000     0.636800000000     0.196600000000     0.249242   
H118     H      0.169100000000     0.598900000000     0.256900000000    -0.210089   
H119     H      0.047000000000     0.566500000000     0.527900000000    -0.213186   
H120     H      0.135400000000     0.547300000000     0.493100000000     0.413914   
H121     H      0.077000000000     0.641000000000     0.524600000000     0.414789   
H122     H      0.168700000000     0.616700000000     0.496100000000     0.41777    
H123     H      0.146600000000     0.563600000000     0.568200000000    -0.00868027 
H124     H      0.098400000000     0.612700000000     0.589500000000     0.100976   
H125     H      0.247900000000     0.581800000000     0.544200000000     0.0908898  
H126     H      0.202000000000     0.632700000000     0.559900000000    -0.0288205  
H127     H      0.175300000000     0.592700000000     0.641900000000     0.0653994  
H128     H      0.260700000000     0.558300000000     0.616700000000     0.0681622  
H129     H      0.254500000000     0.610600000000     0.621800000000     0.148523   
H130     H      0.112600000000     0.665800000000     0.414600000000    -0.06078    
H131     H      0.170600000000     0.724400000000     0.415200000000     0.125546   
H132     H      0.958300000000     0.814900000000     0.403700000000    -0.00990726 
H133     H      0.903000000000     0.753900000000     0.406900000000     0.0734455  
H134     H      0.071400000000     0.836600000000     0.437600000000     0.0782869  
H135     H      0.094400000000     0.838400000000     0.383600000000     0.104371   
H136     H      0.327300000000     0.646100000000     0.401900000000     0.0965196  
H137     H      0.419300000000     0.647300000000     0.442100000000    -0.0417052  
H138     H      0.470900000000     0.583700000000     0.485900000000    -0.057504   
H139     H      0.422200000000     0.519500000000     0.489100000000     0.151045   
H140     H      0.097600000000     0.425000000000     0.425800000000     0.138649   
H141     H      0.172000000000     0.393500000000     0.443100000000     0.074624   
H142     H      0.158100000000     0.361700000000     0.377900000000     0.0739569  
H143     H      0.176100000000     0.404900000000     0.348700000000     0.065159   
H144     H      0.311900000000     0.383700000000     0.355300000000    -0.0136792  
H145     H      0.294400000000     0.342400000000     0.387800000000     0.0916687  
H146     H      0.298600000000     0.347000000000     0.292800000000     0.108979   
H147     H      0.279900000000     0.305900000000     0.325300000000    -0.00339991 
H148     H      0.434500000000     0.327100000000     0.301900000000     0.0750792  
H149     H      0.415700000000     0.285100000000     0.333100000000     0.0733482  
H150     H      0.419800000000     0.285700000000     0.280500000000     0.136314   
H151     H      0.517600000000     0.691400000000     0.572000000000    -0.0483017  
H152     H      0.499300000000     0.770200000000     0.569200000000     0.117927   
H153     H      0.604500000000     0.800800000000     0.523800000000    -0.00840684 
H154     H      0.727200000000     0.751300000000     0.482500000000     0.172472   
H155     H      0.964400000000     0.491600000000     0.416600000000     0.166493   
H156     H      0.987100000000     0.535000000000     0.389800000000    -0.0796325  
H157     H      0.961600000000     0.484400000000     0.342000000000    -0.0690784  
H158     H      0.868600000000     0.496500000000     0.372300000000     0.20732    
H159     H      0.942700000000     0.562100000000     0.318500000000     0.208858   
H160     H      0.849700000000     0.573900000000     0.348500000000    -0.15582    
H161     H      0.913000000000     0.515900000000     0.269700000000    -0.159082   
H162     H      0.819700000000     0.528900000000     0.299300000000     0.326773   
H163     H      0.818000000000     0.608400000000     0.276800000000     0.332483   
H164     H      0.817500000000     0.576300000000     0.238700000000     0.323339   
H165     H      0.900500000000     0.586800000000     0.238600000000     0.142053   
H166     H      0.208500000000     0.928800000000     0.480600000000    -0.0375443  
H167     H      0.171300000000     0.862500000000     0.478900000000     0.127163   
H168     H      0.246000000000     0.866400000000     0.342000000000    -0.0062316  
H169     H      0.281200000000     0.932800000000     0.346400000000     0.192091   
H170     H      0.222100000000     0.793500000000     0.379500000000     0.184846   
H171     H      0.199200000000     0.790600000000     0.433800000000    -0.102633   
H172     H      0.374100000000     0.809900000000     0.215100000000    -0.0898843  
H173     H      0.379100000000     0.817500000000     0.288900000000     0.249204   
H174     H      0.456100000000     0.863200000000     0.303400000000     0.249242   
H175     H      0.524900000000     0.901100000000     0.243100000000    -0.210088   
H176     H      0.641400000000     0.933500000000     0.972100000000    -0.213185   
H177     H      0.675800000000     0.952700000000     0.006900000000     0.413913   
H178     H      0.742600000000     0.859000000000     0.975400000000     0.414788   
H179     H      0.781500000000     0.883300000000     0.003900000000     0.417769   
H180     H      0.778400000000     0.936400000000     0.931800000000    -0.0086792  
H181     H      0.800600000000     0.887300000000     0.910500000000     0.100975   
H182     H      0.873900000000     0.918200000000     0.955800000000     0.0908886  
H183     H      0.894600000000     0.867300000000     0.940100000000    -0.0288195  
H184     H      0.909900000000     0.907300000000     0.858100000000     0.0653986  
H185     H      0.935700000000     0.941700000000     0.883300000000     0.0681616  
H186     H      0.986900000000     0.889400000000     0.878200000000     0.148513   
H187     H      0.693000000000     0.834200000000     0.085400000000    -0.0607719  
H188     H      0.810200000000     0.775600000000     0.084800000000     0.125539   
H189     H      0.676900000000     0.685100000000     0.096300000000    -0.00989958 
H190     H      0.563800000000     0.746100000000     0.093100000000     0.0734485  
H191     H      0.845600000000     0.663400000000     0.062400000000     0.0782895  
H192     H      0.816400000000     0.661600000000     0.116400000000     0.10437    
H193     H      0.875300000000     0.853900000000     0.098100000000     0.0965187  
H194     H      0.008700000000     0.852700000000     0.057900000000    -0.041707   
H195     H      0.040500000000     0.916300000000     0.014100000000    -0.0575056  
H196     H      0.930800000000     0.980500000000     0.010900000000     0.151047   
H197     H      0.448400000000     0.075000000000     0.074200000000     0.138651   
H198     H      0.508600000000     0.106500000000     0.056900000000     0.0746219  
H199     H      0.397700000000     0.138300000000     0.122100000000     0.0739548  
H200     H      0.429700000000     0.095100000000     0.151300000000     0.065157   
H201     H      0.550900000000     0.116300000000     0.144700000000    -0.0136762  
H202     H      0.524600000000     0.157600000000     0.112200000000     0.0916683  
H203     H      0.438400000000     0.153000000000     0.207200000000     0.108978   
H204     H      0.411100000000     0.194100000000     0.174700000000    -0.00339753 
H205     H      0.563500000000     0.172900000000     0.198100000000     0.0750787  
H206     H      0.533900000000     0.214900000000     0.166900000000     0.0733481  
H207     H      0.486000000000     0.214300000000     0.219500000000     0.136316   
H208     H      0.281000000000     0.808600000000     0.928000000000    -0.0483034  
H209     H      0.338700000000     0.729800000000     0.930800000000     0.117929   
H210     H      0.429100000000     0.699200000000     0.976200000000    -0.00840863 
H211     H      0.461000000000     0.748700000000     0.017500000000     0.172471   
H212     H      0.372600000000     0.008400000000     0.083400000000     0.16649    
H213     H      0.411900000000     0.965000000000     0.110200000000    -0.0796322  
H214     H      0.288000000000     0.015600000000     0.158000000000    -0.0690778  
H215     H      0.237400000000     0.003500000000     0.127700000000     0.20732    
H216     H      0.323300000000     0.937900000000     0.181500000000     0.208858   
H217     H      0.272100000000     0.926100000000     0.151500000000    -0.15582    
H218     H      0.198600000000     0.984100000000     0.230300000000    -0.159083   
H219     H      0.147900000000     0.971100000000     0.200700000000     0.326775   
H220     H      0.203200000000     0.891600000000     0.223200000000     0.332484   
H221     H      0.132500000000     0.923700000000     0.261300000000     0.323339   
H222     H      0.225900000000     0.913200000000     0.261400000000     0.142054   
H223     H      0.117900000000     0.571200000000     0.019400000000    -0.037545   
H224     H      0.012700000000     0.637500000000     0.021100000000     0.127164   
H225     H      0.954400000000     0.633600000000     0.158000000000    -0.00623116 
H226     H      0.060400000000     0.567200000000     0.153600000000     0.192093   
H227     H      0.895100000000     0.706500000000     0.120500000000     0.184849   
H228     H      0.923600000000     0.709400000000     0.066200000000    -0.102636   
H229     H      0.410800000000     0.215100000000     0.690100000000    -0.089887   
H230     H      0.332000000000     0.288900000000     0.682500000000     0.249207   
H231     H      0.240500000000     0.303400000000     0.636800000000     0.249243   
H232     H      0.232000000000     0.243100000000     0.598900000000    -0.21009    
H233     H      0.386500000000     0.972100000000     0.566500000000    -0.213187   
H234     H      0.317300000000     0.006900000000     0.547300000000     0.413913   
H235     H      0.282000000000     0.975400000000     0.641000000000     0.41479    
H236     H      0.214600000000     0.003900000000     0.616700000000     0.417769   
H237     H      0.289800000000     0.931800000000     0.563600000000    -0.00867976 
H238     H      0.288900000000     0.910500000000     0.612700000000     0.100975   
H239     H      0.170300000000     0.955800000000     0.581800000000     0.0908888  
H240     H      0.165300000000     0.940100000000     0.632700000000    -0.02882    
H241     H      0.232000000000     0.858100000000     0.592700000000     0.0653985  
H242     H      0.181000000000     0.883300000000     0.558300000000     0.0681618  
H243     H      0.134900000000     0.878200000000     0.610600000000     0.14851    
H244     H      0.221600000000     0.085400000000     0.665800000000    -0.06077    
H245     H      0.105000000000     0.084800000000     0.724400000000     0.125538   
H246     H      0.226800000000     0.096300000000     0.814900000000    -0.00989878 
H247     H      0.343100000000     0.093100000000     0.753900000000     0.0734491  
H248     H      0.092000000000     0.062400000000     0.836600000000     0.0782893  
H249     H      0.067200000000     0.116400000000     0.838400000000     0.104371   
H250     H      0.026600000000     0.098100000000     0.646100000000     0.0965187  
H251     H      0.933400000000     0.057900000000     0.647300000000    -0.0417073  
H252     H      0.945400000000     0.014100000000     0.583700000000    -0.057506   
H253     H      0.058300000000     0.010900000000     0.519500000000     0.151047   
H254     H      0.477400000000     0.074200000000     0.425000000000     0.138652   
H255     H      0.434500000000     0.056900000000     0.393500000000     0.0746223  
H256     H      0.480200000000     0.122100000000     0.361700000000     0.0739552  
H257     H      0.419000000000     0.151300000000     0.404900000000     0.0651571  
H258     H      0.304400000000     0.144700000000     0.383700000000    -0.013681   
H259     H      0.363200000000     0.112200000000     0.342400000000     0.091669   
H260     H      0.354400000000     0.207200000000     0.347000000000     0.108979   
H261     H      0.414200000000     0.174700000000     0.305900000000    -0.00340008 
H262     H      0.238400000000     0.198100000000     0.327100000000     0.0750793  
H263     H      0.299200000000     0.166900000000     0.285100000000     0.0733486  
H264     H      0.294500000000     0.219500000000     0.285700000000     0.136314   
H265     H      0.791000000000     0.928000000000     0.691400000000    -0.0483018  
H266     H      0.730500000000     0.930800000000     0.770200000000     0.117927   
H267     H      0.594700000000     0.976200000000     0.800800000000    -0.00840706 
H268     H      0.521500000000     0.017500000000     0.751300000000     0.172471   
H269     H      0.544000000000     0.083400000000     0.491600000000     0.166491   
H270     H      0.477900000000     0.110200000000     0.535000000000    -0.0796322  
H271     H      0.554000000000     0.158000000000     0.484400000000    -0.0690778  
H272     H      0.634900000000     0.127700000000     0.496500000000     0.20732    
H273     H      0.495200000000     0.181500000000     0.562100000000     0.208858   
H274     H      0.576400000000     0.151500000000     0.573900000000    -0.15582    
H275     H      0.571100000000     0.230300000000     0.515900000000    -0.159083   
H276     H      0.651400000000     0.200700000000     0.528900000000     0.326774   
H277     H      0.573600000000     0.223200000000     0.608400000000     0.332483   
H278     H      0.606200000000     0.261300000000     0.576300000000     0.323338   
H279     H      0.512700000000     0.261400000000     0.586800000000     0.142056   
H280     H      0.862700000000     0.019400000000     0.928800000000    -0.0375467  
H281     H      0.966200000000     0.021100000000     0.862500000000     0.127165   
H282     H      0.887600000000     0.158000000000     0.866400000000    -0.00623321 
H283     H      0.786000000000     0.153600000000     0.932800000000     0.192093   
H284     H      0.984400000000     0.120500000000     0.793500000000     0.184851   
H285     H      0.010200000000     0.066200000000     0.790600000000    -0.102636   
H286     H      0.816000000000     0.284900000000     0.809900000000    -0.0898872  
H287     H      0.803400000000     0.211100000000     0.817500000000     0.249209   
H288     H      0.680700000000     0.196600000000     0.863200000000     0.249246   
H289     H      0.574000000000     0.256900000000     0.901100000000    -0.210091   
H290     H      0.425100000000     0.527900000000     0.933500000000    -0.213188   
H291     H      0.371500000000     0.493100000000     0.952700000000     0.413915   
H292     H      0.398400000000     0.524600000000     0.859000000000     0.414791   
H293     H      0.335200000000     0.496100000000     0.883300000000     0.417772   
H294     H      0.285200000000     0.568200000000     0.936400000000    -0.00867971 
H295     H      0.312100000000     0.589500000000     0.887300000000     0.100975   
H296     H      0.207900000000     0.544200000000     0.918200000000     0.0908883  
H297     H      0.238100000000     0.559900000000     0.867300000000    -0.0288196  
H298     H      0.182800000000     0.641900000000     0.907300000000     0.0653981  
H299     H      0.122600000000     0.616700000000     0.941700000000     0.068161   
H300     H      0.123700000000     0.621800000000     0.889400000000     0.148521   
H301     H      0.472800000000     0.414600000000     0.834200000000    -0.0607781  
H302     H      0.414200000000     0.415200000000     0.775600000000     0.125546   
H303     H      0.638000000000     0.403700000000     0.685100000000    -0.00990566 
H304     H      0.690100000000     0.406900000000     0.746100000000     0.0734453  
H305     H      0.491000000000     0.437600000000     0.663400000000     0.0782865  
H306     H      0.522000000000     0.383600000000     0.661600000000     0.104371   
H307     H      0.270800000000     0.401900000000     0.853900000000     0.0965196  
H308     H      0.138600000000     0.442100000000     0.852700000000    -0.0417056  
H309     H      0.043200000000     0.485900000000     0.916300000000    -0.0575043  
H310     H      0.088700000000     0.489100000000     0.980500000000     0.151045   
H311     H      0.476600000000     0.425800000000     0.075000000000     0.138649   
H312     H      0.384900000000     0.443100000000     0.106500000000     0.0746238  
H313     H      0.464000000000     0.377900000000     0.138300000000     0.0739565  
H314     H      0.475200000000     0.348700000000     0.095100000000     0.0651588  
H315     H      0.332800000000     0.355300000000     0.116300000000    -0.013679   
H316     H      0.317800000000     0.387800000000     0.157600000000     0.0916681  
H317     H      0.408600000000     0.292800000000     0.153000000000     0.108978   
H318     H      0.394800000000     0.325300000000     0.194100000000    -0.00339955 
H319     H      0.263600000000     0.301900000000     0.172900000000     0.0750783  
H320     H      0.251200000000     0.333100000000     0.214900000000     0.0733474  
H321     H      0.299700000000     0.280500000000     0.214300000000     0.136314   
H322     H      0.910400000000     0.572000000000     0.808600000000    -0.0483018  
H323     H      0.931500000000     0.569200000000     0.729800000000     0.117927   
H324     H      0.871700000000     0.523800000000     0.699200000000    -0.00840749 
H325     H      0.790300000000     0.482500000000     0.748700000000     0.172472   
H326     H      0.619000000000     0.416600000000     0.008400000000     0.166492   
H327     H      0.623100000000     0.389800000000     0.965000000000    -0.0796325  
H328     H      0.696400000000     0.342000000000     0.015600000000    -0.0690783  
H329     H      0.759100000000     0.372300000000     0.003500000000     0.20732    
H330     H      0.738800000000     0.318500000000     0.937900000000     0.208858   
H331     H      0.801800000000     0.348500000000     0.926100000000    -0.15582    
H332     H      0.817300000000     0.269700000000     0.984100000000    -0.159083   
H333     H      0.881000000000     0.299300000000     0.971100000000     0.326775   
H334     H      0.905200000000     0.276800000000     0.891600000000     0.332484   
H335     H      0.943800000000     0.238700000000     0.923700000000     0.32334    
H336     H      0.860900000000     0.238600000000     0.913200000000     0.142054   
H337     H      0.310900000000     0.480600000000     0.571200000000    -0.0375452  
H338     H      0.349800000000     0.478900000000     0.637500000000     0.127163   
H339     H      0.412000000000     0.342000000000     0.633600000000    -0.00623221 
H340     H      0.372400000000     0.346400000000     0.567200000000     0.192091   
H341     H      0.398400000000     0.379500000000     0.706500000000     0.184847   
H342     H      0.367000000000     0.433800000000     0.709400000000    -0.102634   
H343     H      0.100900000000     0.309900000000     0.715100000000    -0.0898853  
H344     H      0.014500000000     0.317500000000     0.788900000000     0.249205   
H345     H      0.877300000000     0.363200000000     0.803400000000     0.249242   
H346     H      0.830900000000     0.401100000000     0.743100000000    -0.210089   
H347     H      0.953000000000     0.433500000000     0.472100000000    -0.213186   
H348     H      0.864600000000     0.452700000000     0.506900000000     0.413914   
H349     H      0.923000000000     0.359000000000     0.475400000000     0.414789   
H350     H      0.831300000000     0.383300000000     0.503900000000     0.41777    
H351     H      0.853400000000     0.436400000000     0.431800000000    -0.00868027 
H352     H      0.901600000000     0.387300000000     0.410500000000     0.100976   
H353     H      0.752100000000     0.418200000000     0.455800000000     0.0908898  
H354     H      0.798000000000     0.367300000000     0.440100000000    -0.0288205  
H355     H      0.824700000000     0.407300000000     0.358100000000     0.0653994  
H356     H      0.739300000000     0.441700000000     0.383300000000     0.0681622  
H357     H      0.745500000000     0.389400000000     0.378200000000     0.148523   
H358     H      0.887400000000     0.334200000000     0.585400000000    -0.06078    
H359     H      0.829400000000     0.275600000000     0.584800000000     0.125546   
H360     H      0.041700000000     0.185100000000     0.596300000000    -0.00990726 
H361     H      0.097000000000     0.246100000000     0.593100000000     0.0734455  
H362     H      0.928600000000     0.163400000000     0.562400000000     0.0782869  
H363     H      0.905600000000     0.161600000000     0.616400000000     0.104371   
H364     H      0.672700000000     0.353900000000     0.598100000000     0.0965196  
H365     H      0.580700000000     0.352700000000     0.557900000000    -0.0417052  
H366     H      0.529100000000     0.416300000000     0.514100000000    -0.057504   
H367     H      0.577800000000     0.480500000000     0.510900000000     0.151045   
H368     H      0.902400000000     0.575000000000     0.574200000000     0.138649   
H369     H      0.828000000000     0.606500000000     0.556900000000     0.074624   
H370     H      0.841900000000     0.638300000000     0.622100000000     0.0739569  
H371     H      0.823900000000     0.595100000000     0.651300000000     0.065159   
H372     H      0.688100000000     0.616300000000     0.644700000000    -0.0136792  
H373     H      0.705600000000     0.657600000000     0.612200000000     0.0916687  
H374     H      0.701400000000     0.653000000000     0.707200000000     0.108979   
H375     H      0.720100000000     0.694100000000     0.674700000000    -0.00339991 
H376     H      0.565500000000     0.672900000000     0.698100000000     0.0750792  
H377     H      0.584300000000     0.714900000000     0.666900000000     0.0733482  
H378     H      0.580200000000     0.714300000000     0.719500000000     0.136314   
H379     H      0.482400000000     0.308600000000     0.428000000000    -0.0483017  
H380     H      0.500700000000     0.229800000000     0.430800000000     0.117927   
H381     H      0.395500000000     0.199200000000     0.476200000000    -0.00840684 
H382     H      0.272800000000     0.248700000000     0.517500000000     0.172472   
H383     H      0.035600000000     0.508400000000     0.583400000000     0.166493   
H384     H      0.012900000000     0.465000000000     0.610200000000    -0.0796325  
H385     H      0.038400000000     0.515600000000     0.658000000000    -0.0690784  
H386     H      0.131400000000     0.503500000000     0.627700000000     0.20732    
H387     H      0.057300000000     0.437900000000     0.681500000000     0.208858   
H388     H      0.150300000000     0.426100000000     0.651500000000    -0.15582    
H389     H      0.087000000000     0.484100000000     0.730300000000    -0.159082   
H390     H      0.180300000000     0.471100000000     0.700700000000     0.326773   
H391     H      0.182000000000     0.391600000000     0.723200000000     0.332483   
H392     H      0.182500000000     0.423700000000     0.761300000000     0.323339   
H393     H      0.099500000000     0.413200000000     0.761400000000     0.142053   
H394     H      0.791500000000     0.071200000000     0.519400000000    -0.0375443  
H395     H      0.828700000000     0.137500000000     0.521100000000     0.127163   
H396     H      0.754000000000     0.133600000000     0.658000000000    -0.0062316  
H397     H      0.718800000000     0.067200000000     0.653600000000     0.192091   
H398     H      0.777900000000     0.206500000000     0.620500000000     0.184846   
H399     H      0.800800000000     0.209400000000     0.566200000000    -0.102633   
H400     H      0.625900000000     0.190100000000     0.784900000000    -0.0898843  
H401     H      0.620900000000     0.182500000000     0.711100000000     0.249204   
H402     H      0.543900000000     0.136800000000     0.696600000000     0.249242   
H403     H      0.475100000000     0.098900000000     0.756900000000    -0.210088   
H404     H      0.358600000000     0.066500000000     0.027900000000    -0.213185   
H405     H      0.324200000000     0.047300000000     0.993100000000     0.413913   
H406     H      0.257400000000     0.141000000000     0.024600000000     0.414788   
H407     H      0.218500000000     0.116700000000     0.996100000000     0.417769   
H408     H      0.221600000000     0.063600000000     0.068200000000    -0.0086792  
H409     H      0.199400000000     0.112700000000     0.089500000000     0.100975   
H410     H      0.126100000000     0.081800000000     0.044200000000     0.0908886  
H411     H      0.105400000000     0.132700000000     0.059900000000    -0.0288195  
H412     H      0.090100000000     0.092700000000     0.141900000000     0.0653986  
H413     H      0.064300000000     0.058300000000     0.116700000000     0.0681616  
H414     H      0.013100000000     0.110600000000     0.121800000000     0.332652   
H415     H      0.307000000000     0.165800000000     0.914600000000    -0.341893   
H416     H      0.189800000000     0.224400000000     0.915200000000     0.199535   
H417     H      0.323100000000     0.314900000000     0.903700000000    -0.274387   
H418     H      0.436200000000     0.253900000000     0.906900000000     0.181924   
H419     H      0.154400000000     0.336600000000     0.937600000000    -0.274251   
H420     H      0.183600000000     0.338400000000     0.883600000000     0.302892   
H421     H      0.124700000000     0.146100000000     0.901900000000     0.237943   
H422     H      0.991300000000     0.147300000000     0.942100000000    -0.172699   
H423     H      0.959500000000     0.083700000000     0.985900000000    -0.247301   
H424     H      0.069200000000     0.019500000000     0.989100000000     0.297085   
H425     H      0.551600000000     0.925000000000     0.925800000000    -0.410944   
H426     H      0.491400000000     0.893500000000     0.943100000000    -0.15711    
H427     H      0.602300000000     0.861700000000     0.877900000000     0.127064   
H428     H      0.570300000000     0.904900000000     0.848700000000    -0.206385   
H429     H      0.449100000000     0.883700000000     0.855300000000     0.143683   
H430     H      0.475400000000     0.842400000000     0.887800000000    -0.216988   
H431     H      0.561600000000     0.847000000000     0.792800000000     0.123998   
H432     H      0.588900000000     0.805900000000     0.825300000000    -0.16065    
H433     H      0.436500000000     0.827100000000     0.801900000000     0.323823   
H434     H      0.466100000000     0.785100000000     0.833100000000    -0.320108   
H435     H      0.514000000000     0.785700000000     0.780500000000     0.175226   
H436     H      0.719000000000     0.191400000000     0.072000000000    -0.23949    
H437     H      0.661300000000     0.270200000000     0.069200000000     0.148696   
H438     H      0.570900000000     0.300800000000     0.023800000000    -0.260862   
H439     H      0.539000000000     0.251300000000     0.982500000000     0.302546   
H440     H      0.627400000000     0.991600000000     0.916600000000     0.319076   
H441     H      0.588100000000     0.035000000000     0.889800000000    -0.4904     
H442     H      0.712000000000     0.984400000000     0.842000000000     0.343268   
H443     H      0.762600000000     0.996500000000     0.872300000000    -0.610314   
H444     H      0.676700000000     0.062100000000     0.818500000000     0.574246   
H445     H      0.727900000000     0.073900000000     0.848500000000    -1.0444     
H446     H      0.801400000000     0.015900000000     0.769700000000     0.328468   
H447     H      0.852100000000     0.028900000000     0.799300000000    -0.316133   
H448     H      0.796800000000     0.108400000000     0.776800000000     0.182395   
H449     H      0.867500000000     0.076300000000     0.738700000000    -0.249993   
H450     H      0.774100000000     0.086800000000     0.738600000000     0.160144   
H451     H      0.882100000000     0.428800000000     0.980600000000    -0.268928   
H452     H      0.987300000000     0.362500000000     0.978900000000     0.308297   
H453     H      0.045600000000     0.366400000000     0.842000000000     0.349726   
H454     H      0.939600000000     0.432800000000     0.846400000000    -0.548626   
H455     H      0.104900000000     0.293500000000     0.879500000000     0.429634   
H456     H      0.076400000000     0.290600000000     0.933800000000    -0.747913   
C1       C      0.631110000000     0.816770000000     0.350410000000     0.78531    
C2       C      0.625700000000     0.779550000000     0.328250000000    -1.32033    
C3       C      0.672650000000     0.735320000000     0.332780000000     0.136562   
C4       C      0.727080000000     0.726530000000     0.360110000000    -0.216941   
C5       C      0.732240000000     0.762780000000     0.382340000000     0.157009   
C6       C      0.686530000000     0.807930000000     0.378010000000    -0.231013   
C7       C      0.697670000000     0.844610000000     0.403450000000     0.1312     
C8       C      0.646100000000     0.962850000000     0.407550000000    -0.167814   
C9       C      0.664140000000     0.002630000000     0.425090000000     0.332638   
C10      C      0.732360000000     0.019550000000     0.388130000000    -0.341884   
C11      C      0.739900000000     0.064100000000     0.403700000000     0.199529   
C12      C      0.803400000000     0.067600000000     0.399200000000    -0.274384   
C13      C      0.815000000000     0.117200000000     0.410600000000     0.181921   
C14      C      0.776860000000     0.913310000000     0.303770000000    -0.274248   
C15      C      0.847300000000     0.913100000000     0.268900000000     0.302895   
C16      C      0.847140000000     0.909600000000     0.222720000000     0.237943   
C17      C      0.775250000000     0.906720000000     0.215180000000    -0.172698   
C18      C      0.705650000000     0.908300000000     0.252000000000    -0.247302   
C19      C      0.922800000000     0.909800000000     0.181200000000     0.297086   
C20      C      0.901670000000     0.918260000000     0.419600000000    -0.410946   
C21      C      0.967270000000     0.918480000000     0.379980000000    -0.157111   
C22      C      0.022840000000     0.943110000000     0.379210000000     0.127066   
C23      C      0.015960000000     0.969860000000     0.417020000000    -0.206388   
C24      C      0.948840000000     0.971020000000     0.455300000000     0.143685   
C25      C      0.890820000000     0.946250000000     0.457910000000    -0.216992   
C26      C      0.819920000000     0.952130000000     0.499030000000     0.124003   
C27      C      0.648850000000     0.912870000000     0.546630000000    -0.160652   
C28      C      0.571040000000     0.917940000000     0.586780000000     0.323819   
C29      C      0.573160000000     0.874050000000     0.615230000000    -0.320104   
C30      C      0.642010000000     0.861550000000     0.639430000000     0.175221   
C31      C      0.639480000000     0.819260000000     0.671180000000    -0.239485   
C32      C      0.708200000000     0.807620000000     0.695580000000     0.148691   
C33      C      0.307140000000     0.027880000000     0.327240000000    -0.260859   
C34      C      0.263170000000     0.053670000000     0.296790000000     0.302544   
C35      C      0.299640000000     0.052120000000     0.249400000000     0.319075   
C36      C      0.380810000000     0.025190000000     0.230990000000    -0.490399   
C37      C      0.424090000000     0.000540000000     0.260880000000     0.343268   
C38      C      0.389240000000     0.001540000000     0.309180000000    -0.610313   
C39      C      0.441010000000     0.973100000000     0.337680000000     0.574245   
C40      C      0.421880000000     0.935210000000     0.448630000000    -1.04439    
C41      C      0.462910000000     0.901190000000     0.479990000000     0.328471   
C42      C      0.425080000000     0.860530000000     0.491510000000    -0.316137   
C43      C      0.444710000000     0.829760000000     0.450020000000     0.1824     
C44      C      0.408800000000     0.788180000000     0.459820000000    -0.249997   
C45      C      0.431100000000     0.757900000000     0.418300000000     0.160147   
C46      C      0.132190000000     0.952140000000     0.083880000000    -0.268931   
C47      C      0.070650000000     0.951340000000     0.124160000000     0.308295   
C48      C      0.063370000000     0.909490000000     0.144970000000     0.349723   
C49      C      0.116830000000     0.870860000000     0.121880000000    -0.548625   
C50      C      0.177220000000     0.873640000000     0.081520000000     0.429636   
C51      C      0.997500000000     0.907900000000     0.190100000000    -0.747918   
C52      C      0.298290000000     0.683230000000     0.149590000000     0.785315   
C53      C      0.233500000000     0.720450000000     0.171750000000    -1.32034    
C54      C      0.240750000000     0.764680000000     0.167220000000     0.136561   
C55      C      0.313720000000     0.773470000000     0.139890000000    -0.21694    
C56      C      0.377360000000     0.737220000000     0.117660000000     0.157008   
C57      C      0.372470000000     0.692070000000     0.121990000000    -0.231012   
C58      C      0.445730000000     0.655390000000     0.096550000000     0.131199   
C59      C      0.516500000000     0.537150000000     0.092450000000    -0.167812   
C60      C      0.591860000000     0.497370000000     0.074910000000     0.332679   
C61      C      0.640040000000     0.480450000000     0.111870000000    -0.341913   
C62      C      0.707700000000     0.435900000000     0.096300000000     0.199552   
C63      C      0.770200000000     0.432400000000     0.100800000000    -0.274406   
C64      C      0.842800000000     0.382800000000     0.089400000000     0.181944   
C65      C      0.493940000000     0.586690000000     0.196230000000    -0.274276   
C66      C      0.529300000000     0.586900000000     0.231100000000     0.3029     
C67      C      0.479460000000     0.590400000000     0.277280000000     0.23792    
C68      C      0.397150000000     0.593280000000     0.284820000000    -0.172688   
C69      C      0.365950000000     0.591700000000     0.248000000000    -0.247304   
C70      C      0.513800000000     0.590200000000     0.318800000000     0.29708    
C71      C      0.739530000000     0.581740000000     0.080400000000    -0.410937   
C72      C      0.765730000000     0.581520000000     0.120020000000    -0.157116   
C73      C      0.845160000000     0.556890000000     0.120790000000     0.127064   
C74      C      0.902840000000     0.530140000000     0.082980000000    -0.206385   
C75      C      0.875160000000     0.528980000000     0.044700000000     0.143683   
C76      C      0.794980000000     0.553750000000     0.042090000000    -0.216989   
C77      C      0.771080000000     0.547870000000     0.000970000000     0.124      
C78      C      0.608350000000     0.587130000000     0.953370000000    -0.160648   
C79      C      0.575760000000     0.582060000000     0.913220000000     0.323819   
C80      C      0.562440000000     0.625950000000     0.884770000000    -0.320104   
C81      C      0.642990000000     0.638450000000     0.860570000000     0.175221   
C82      C      0.629920000000     0.680740000000     0.828820000000    -0.239485   
C83      C      0.711400000000     0.692380000000     0.804420000000     0.148692   
C84      C      0.162260000000     0.472120000000     0.172760000000    -0.260859   
C85      C      0.113630000000     0.446330000000     0.203210000000     0.302544   
C86      C      0.101160000000     0.447880000000     0.250600000000     0.319076   
C87      C      0.136990000000     0.474810000000     0.269010000000    -0.490401   
C88      C      0.185510000000     0.499460000000     0.239120000000     0.34327    
C89      C      0.199960000000     0.498460000000     0.190820000000    -0.610315   
C90      C      0.251790000000     0.526900000000     0.162320000000     0.574247   
C91      C      0.305720000000     0.564790000000     0.051370000000    -1.0444     
C92      C      0.344090000000     0.598810000000     0.020010000000     0.328468   
C93      C      0.277120000000     0.639470000000     0.008490000000    -0.316134   
C94      C      0.224490000000     0.670240000000     0.049980000000     0.182396   
C95      C      0.156800000000     0.711820000000     0.040180000000    -0.249993   
C96      C      0.107300000000     0.742100000000     0.081700000000     0.160142   
C97      C      0.668210000000     0.547860000000     0.416120000000    -0.268927   
C98      C      0.646150000000     0.548660000000     0.375840000000     0.308289   
C99      C      0.617830000000     0.590510000000     0.355030000000     0.349719   
C100     C      0.609570000000     0.629140000000     0.378120000000    -0.548619   
C101     C      0.632380000000     0.626360000000     0.418480000000     0.429628   
C102     C      0.595500000000     0.592100000000     0.309900000000    -0.74791    
C103     C      0.981520000000     0.649590000000     0.316770000000     0.785308   
C104     C      0.953950000000     0.671750000000     0.279550000000    -1.32033    
C105     C      0.005430000000     0.667220000000     0.235320000000     0.136563   
C106     C      0.087190000000     0.639890000000     0.226530000000    -0.216943   
C107     C      0.114580000000     0.617660000000     0.262780000000     0.157011   
C108     C      0.064540000000     0.621990000000     0.307930000000    -0.231015   
C109     C      0.101120000000     0.596550000000     0.344610000000     0.131201   
C110     C      0.053650000000     0.592450000000     0.462850000000    -0.167816   
C111     C      0.089230000000     0.574910000000     0.502630000000     0.332683   
C112     C      0.120490000000     0.611870000000     0.519550000000    -0.341918   
C113     C      0.143600000000     0.596300000000     0.564100000000     0.199557   
C114     C      0.202600000000     0.600800000000     0.567600000000    -0.27441    
C115     C      0.225600000000     0.589400000000     0.617200000000     0.181947   
C116     C      0.080630000000     0.696230000000     0.413310000000    -0.274279   
C117     C      0.116200000000     0.731100000000     0.413100000000     0.302902   
C118     C      0.069860000000     0.777280000000     0.409600000000     0.237921   
C119     C      0.990430000000     0.784820000000     0.406720000000    -0.172688   
C120     C      0.957650000000     0.748000000000     0.408300000000    -0.247303   
C121     C      0.104000000000     0.818800000000     0.409800000000     0.297078   
C122     C      0.321270000000     0.580400000000     0.418260000000    -0.410936   
C123     C      0.347250000000     0.620020000000     0.418480000000    -0.157117   
C124     C      0.402050000000     0.620790000000     0.443110000000     0.127065   
C125     C      0.432980000000     0.582980000000     0.469860000000    -0.206386   
C126     C      0.404140000000     0.544700000000     0.471020000000     0.143684   
C127     C      0.348730000000     0.542090000000     0.446250000000    -0.21699    
C128     C      0.318950000000     0.500970000000     0.452130000000     0.124001   
C129     C      0.195480000000     0.453370000000     0.412870000000    -0.160651   
C130     C      0.157820000000     0.413220000000     0.417940000000     0.323819   
C131     C      0.188390000000     0.384770000000     0.374050000000    -0.320103   
C132     C      0.281440000000     0.360570000000     0.361550000000     0.175221   
C133     C      0.310660000000     0.328820000000     0.319260000000    -0.239484   
C134     C      0.403780000000     0.304420000000     0.307620000000     0.148691   
C135     C      0.634380000000     0.672760000000     0.527880000000    -0.260859   
C136     C      0.559960000000     0.703210000000     0.553670000000     0.302544   
C137     C      0.549040000000     0.750600000000     0.552120000000     0.319076   
C138     C      0.611800000000     0.769010000000     0.525190000000    -0.490402   
C139     C      0.684970000000     0.739120000000     0.500540000000     0.34327    
C140     C      0.698420000000     0.690820000000     0.501540000000    -0.610314   
C141     C      0.778690000000     0.662320000000     0.473100000000     0.574246   
C142     C      0.870510000000     0.551370000000     0.435210000000    -1.04439    
C143     C      0.942900000000     0.520010000000     0.401190000000     0.328466   
C144     C      0.916590000000     0.508490000000     0.360530000000    -0.316131   
C145     C      0.894730000000     0.549980000000     0.329760000000     0.182393   
C146     C      0.868620000000     0.540180000000     0.288180000000    -0.249991   
C147     C      0.849400000000     0.581700000000     0.257900000000     0.160141   
C148     C      0.216070000000     0.916120000000     0.452140000000    -0.268925   
C149     C      0.194810000000     0.875840000000     0.451340000000     0.308287   
C150     C      0.208340000000     0.855030000000     0.409490000000     0.349718   
C151     C      0.238710000000     0.878120000000     0.370860000000    -0.548618   
C152     C      0.258740000000     0.918480000000     0.373640000000     0.429626   
C153     C      0.187600000000     0.809900000000     0.407900000000    -0.747907   
C154     C      0.447880000000     0.850410000000     0.183230000000     0.785305   
C155     C      0.405250000000     0.828250000000     0.220450000000    -1.32033    
C156     C      0.407970000000     0.832780000000     0.264680000000     0.136561   
C157     C      0.453610000000     0.860110000000     0.273470000000    -0.21694    
C158     C      0.495020000000     0.882340000000     0.237220000000     0.157008   
C159     C      0.494460000000     0.878010000000     0.192070000000    -0.231012   
C160     C      0.542280000000     0.903450000000     0.155390000000     0.131199   
C161     C      0.608950000000     0.907550000000     0.037150000000    -0.167813   
C162     C      0.666770000000     0.925090000000     0.997370000000     0.332652   
C163     C      0.751910000000     0.888130000000     0.980450000000    -0.341893   
C164     C      0.804000000000     0.903700000000     0.935900000000     0.199535   
C165     C      0.871000000000     0.899200000000     0.932400000000    -0.274387   
C166     C      0.932200000000     0.910600000000     0.882800000000     0.181924   
C167     C      0.690170000000     0.803770000000     0.086690000000    -0.274251   
C168     C      0.760400000000     0.768900000000     0.086900000000     0.302892   
C169     C      0.756740000000     0.722720000000     0.090400000000     0.237943   
C170     C      0.681970000000     0.715180000000     0.093280000000    -0.172699   
C171     C      0.613950000000     0.752000000000     0.091700000000    -0.247301   
C172     C      0.832600000000     0.681200000000     0.090200000000     0.297085   
C173     C      0.819930000000     0.919600000000     0.081740000000    -0.410944   
C174     C      0.885750000000     0.879980000000     0.081520000000    -0.15711    
C175     C      0.965950000000     0.879210000000     0.056890000000     0.127064   
C176     C      0.985820000000     0.917020000000     0.030140000000    -0.206385   
C177     C      0.919860000000     0.955300000000     0.028980000000     0.143683   
C178     C      0.837070000000     0.957910000000     0.053750000000    -0.216988   
C179     C      0.772050000000     0.999030000000     0.047870000000     0.123998   
C180     C      0.561720000000     0.046630000000     0.087130000000    -0.16065    
C181     C      0.488980000000     0.086780000000     0.082060000000     0.323823   
C182     C      0.447210000000     0.115230000000     0.125950000000    -0.320108   
C183     C      0.503560000000     0.139430000000     0.138450000000     0.175226   
C184     C      0.458740000000     0.171180000000     0.180740000000    -0.23949    
C185     C      0.515820000000     0.195580000000     0.192380000000     0.148696   
C186     C      0.335020000000     0.827240000000     0.972120000000    -0.260862   
C187     C      0.316840000000     0.796790000000     0.946330000000     0.302546   
C188     C      0.351760000000     0.749400000000     0.947880000000     0.319076   
C189     C      0.406000000000     0.730990000000     0.974810000000    -0.4904     
C190     C      0.424630000000     0.760880000000     0.999460000000     0.343268   
C191     C      0.390780000000     0.809180000000     0.998460000000    -0.610314   
C192     C      0.414110000000     0.837680000000     0.026900000000     0.574246   
C193     C      0.357090000000     0.948630000000     0.064790000000    -1.0444     
C194     C      0.364100000000     0.979990000000     0.098810000000     0.328468   
C195     C      0.285610000000     0.991510000000     0.139470000000    -0.316133   
C196     C      0.274470000000     0.950020000000     0.170240000000     0.182395   
C197     C      0.196980000000     0.959820000000     0.211820000000    -0.249993   
C198     C      0.189000000000     0.918300000000     0.242100000000     0.160144   
C199     C      0.084330000000     0.583880000000     0.047860000000    -0.268928   
C200     C      0.021990000000     0.624160000000     0.048660000000     0.308297   
C201     C      0.972860000000     0.644970000000     0.090510000000     0.349726   
C202     C      0.987690000000     0.621880000000     0.129140000000    -0.548626   
C203     C      0.050860000000     0.581520000000     0.126360000000     0.429634   
C204     C      0.905400000000     0.690100000000     0.092100000000    -0.747913   
C205     C      0.368890000000     0.183230000000     0.649590000000     0.78531    
C206     C      0.374300000000     0.220450000000     0.671750000000    -1.32033    
C207     C      0.327350000000     0.264680000000     0.667220000000     0.136562   
C208     C      0.272920000000     0.273470000000     0.639890000000    -0.216941   
C209     C      0.267760000000     0.237220000000     0.617660000000     0.157009   
C210     C      0.313470000000     0.192070000000     0.621990000000    -0.231013   
C211     C      0.302330000000     0.155390000000     0.596550000000     0.1312     
C212     C      0.353900000000     0.037150000000     0.592450000000    -0.167814   
C213     C      0.335860000000     0.997370000000     0.574910000000     0.332638   
C214     C      0.267640000000     0.980450000000     0.611870000000    -0.341884   
C215     C      0.260100000000     0.935900000000     0.596300000000     0.199529   
C216     C      0.196600000000     0.932400000000     0.600800000000    -0.274384   
C217     C      0.185000000000     0.882800000000     0.589400000000     0.181921   
C218     C      0.223140000000     0.086690000000     0.696230000000    -0.274248   
C219     C      0.152700000000     0.086900000000     0.731100000000     0.302895   
C220     C      0.152860000000     0.090400000000     0.777280000000     0.237943   
C221     C      0.224750000000     0.093280000000     0.784820000000    -0.172698   
C222     C      0.294350000000     0.091700000000     0.748000000000    -0.247302   
C223     C      0.077200000000     0.090200000000     0.818800000000     0.297086   
C224     C      0.098330000000     0.081740000000     0.580400000000    -0.410946   
C225     C      0.032730000000     0.081520000000     0.620020000000    -0.157111   
C226     C      0.977160000000     0.056890000000     0.620790000000     0.127066   
C227     C      0.984040000000     0.030140000000     0.582980000000    -0.206388   
C228     C      0.051160000000     0.028980000000     0.544700000000     0.143685   
C229     C      0.109180000000     0.053750000000     0.542090000000    -0.216992   
C230     C      0.180080000000     0.047870000000     0.500970000000     0.124003   
C231     C      0.351150000000     0.087130000000     0.453370000000    -0.160652   
C232     C      0.428960000000     0.082060000000     0.413220000000     0.323819   
C233     C      0.426840000000     0.125950000000     0.384770000000    -0.320104   
C234     C      0.357990000000     0.138450000000     0.360570000000     0.175221   
C235     C      0.360520000000     0.180740000000     0.328820000000    -0.239485   
C236     C      0.291800000000     0.192380000000     0.304420000000     0.148691   
C237     C      0.692860000000     0.972120000000     0.672760000000    -0.260859   
C238     C      0.736830000000     0.946330000000     0.703210000000     0.302544   
C239     C      0.700360000000     0.947880000000     0.750600000000     0.319075   
C240     C      0.619190000000     0.974810000000     0.769010000000    -0.490399   
C241     C      0.575910000000     0.999460000000     0.739120000000     0.343268   
C242     C      0.610760000000     0.998460000000     0.690820000000    -0.610313   
C243     C      0.558990000000     0.026900000000     0.662320000000     0.574245   
C244     C      0.578120000000     0.064790000000     0.551370000000    -1.04439    
C245     C      0.537090000000     0.098810000000     0.520010000000     0.328471   
C246     C      0.574920000000     0.139470000000     0.508490000000    -0.316137   
C247     C      0.555290000000     0.170240000000     0.549980000000     0.1824     
C248     C      0.591200000000     0.211820000000     0.540180000000    -0.249997   
C249     C      0.568900000000     0.242100000000     0.581700000000     0.160147   
C250     C      0.867810000000     0.047860000000     0.916120000000    -0.268931   
C251     C      0.929350000000     0.048660000000     0.875840000000     0.308295   
C252     C      0.936630000000     0.090510000000     0.855030000000     0.349723   
C253     C      0.883170000000     0.129140000000     0.878120000000    -0.548625   
C254     C      0.822780000000     0.126360000000     0.918480000000     0.429636   
C255     C      0.002500000000     0.092100000000     0.809900000000    -0.747918   
C256     C      0.701710000000     0.316770000000     0.850410000000     0.785315   
C257     C      0.766500000000     0.279550000000     0.828250000000    -1.32034    
C258     C      0.759250000000     0.235320000000     0.832780000000     0.136561   
C259     C      0.686280000000     0.226530000000     0.860110000000    -0.21694    
C260     C      0.622640000000     0.262780000000     0.882340000000     0.157008   
C261     C      0.627530000000     0.307930000000     0.878010000000    -0.231012   
C262     C      0.554270000000     0.344610000000     0.903450000000     0.131199   
C263     C      0.483500000000     0.462850000000     0.907550000000    -0.167812   
C264     C      0.408140000000     0.502630000000     0.925090000000     0.332679   
C265     C      0.359960000000     0.519550000000     0.888130000000    -0.341913   
C266     C      0.292300000000     0.564100000000     0.903700000000     0.199552   
C267     C      0.229800000000     0.567600000000     0.899200000000    -0.274406   
C268     C      0.157200000000     0.617200000000     0.910600000000     0.181944   
C269     C      0.506060000000     0.413310000000     0.803770000000    -0.274276   
C270     C      0.470700000000     0.413100000000     0.768900000000     0.3029     
C271     C      0.520540000000     0.409600000000     0.722720000000     0.23792    
C272     C      0.602850000000     0.406720000000     0.715180000000    -0.172688   
C273     C      0.634050000000     0.408300000000     0.752000000000    -0.247304   
C274     C      0.486200000000     0.409800000000     0.681200000000     0.29708    
C275     C      0.260470000000     0.418260000000     0.919600000000    -0.410937   
C276     C      0.234270000000     0.418480000000     0.879980000000    -0.157116   
C277     C      0.154840000000     0.443110000000     0.879210000000     0.127064   
C278     C      0.097160000000     0.469860000000     0.917020000000    -0.206385   
C279     C      0.124840000000     0.471020000000     0.955300000000     0.143683   
C280     C      0.205020000000     0.446250000000     0.957910000000    -0.216989   
C281     C      0.228920000000     0.452130000000     0.999030000000     0.124      
C282     C      0.391650000000     0.412870000000     0.046630000000    -0.160648   
C283     C      0.424240000000     0.417940000000     0.086780000000     0.323819   
C284     C      0.437560000000     0.374050000000     0.115230000000    -0.320104   
C285     C      0.357010000000     0.361550000000     0.139430000000     0.175221   
C286     C      0.370080000000     0.319260000000     0.171180000000    -0.239485   
C287     C      0.288600000000     0.307620000000     0.195580000000     0.148692   
C288     C      0.837740000000     0.527880000000     0.827240000000    -0.260859   
C289     C      0.886370000000     0.553670000000     0.796790000000     0.302544   
C290     C      0.898840000000     0.552120000000     0.749400000000     0.319076   
C291     C      0.863010000000     0.525190000000     0.730990000000    -0.490401   
C292     C      0.814490000000     0.500540000000     0.760880000000     0.34327    
C293     C      0.800040000000     0.501540000000     0.809180000000    -0.610315   
C294     C      0.748210000000     0.473100000000     0.837680000000     0.574247   
C295     C      0.694280000000     0.435210000000     0.948630000000    -1.0444     
C296     C      0.655910000000     0.401190000000     0.979990000000     0.328468   
C297     C      0.722880000000     0.360530000000     0.991510000000    -0.316134   
C298     C      0.775510000000     0.329760000000     0.950020000000     0.182396   
C299     C      0.843200000000     0.288180000000     0.959820000000    -0.249993   
C300     C      0.892700000000     0.257900000000     0.918300000000     0.160142   
C301     C      0.331790000000     0.452140000000     0.583880000000    -0.268927   
C302     C      0.353850000000     0.451340000000     0.624160000000     0.308289   
C303     C      0.382170000000     0.409490000000     0.644970000000     0.349719   
C304     C      0.390430000000     0.370860000000     0.621880000000    -0.548619   
C305     C      0.367620000000     0.373640000000     0.581520000000     0.429628   
C306     C      0.404500000000     0.407900000000     0.690100000000    -0.74791    
C307     C      0.018480000000     0.350410000000     0.683230000000     0.785308   
C308     C      0.046050000000     0.328250000000     0.720450000000    -1.32033    
C309     C      0.994570000000     0.332780000000     0.764680000000     0.136563   
C310     C      0.912810000000     0.360110000000     0.773470000000    -0.216943   
C311     C      0.885420000000     0.382340000000     0.737220000000     0.157011   
C312     C      0.935460000000     0.378010000000     0.692070000000    -0.231015   
C313     C      0.898880000000     0.403450000000     0.655390000000     0.131201   
C314     C      0.946350000000     0.407550000000     0.537150000000    -0.167816   
C315     C      0.910770000000     0.425090000000     0.497370000000     0.332683   
C316     C      0.879510000000     0.388130000000     0.480450000000    -0.341918   
C317     C      0.856400000000     0.403700000000     0.435900000000     0.199557   
C318     C      0.797400000000     0.399200000000     0.432400000000    -0.27441    
C319     C      0.774400000000     0.410600000000     0.382800000000     0.181947   
C320     C      0.919370000000     0.303770000000     0.586690000000    -0.274279   
C321     C      0.883800000000     0.268900000000     0.586900000000     0.302902   
C322     C      0.930140000000     0.222720000000     0.590400000000     0.237921   
C323     C      0.009570000000     0.215180000000     0.593280000000    -0.172688   
C324     C      0.042350000000     0.252000000000     0.591700000000    -0.247303   
C325     C      0.896000000000     0.181200000000     0.590200000000     0.297078   
C326     C      0.678730000000     0.419600000000     0.581740000000    -0.410936   
C327     C      0.652750000000     0.379980000000     0.581520000000    -0.157117   
C328     C      0.597950000000     0.379210000000     0.556890000000     0.127065   
C329     C      0.567020000000     0.417020000000     0.530140000000    -0.206386   
C330     C      0.595860000000     0.455300000000     0.528980000000     0.143684   
C331     C      0.651270000000     0.457910000000     0.553750000000    -0.21699    
C332     C      0.681050000000     0.499030000000     0.547870000000     0.124001   
C333     C      0.804520000000     0.546630000000     0.587130000000    -0.160651   
C334     C      0.842180000000     0.586780000000     0.582060000000     0.323819   
C335     C      0.811610000000     0.615230000000     0.625950000000    -0.320103   
C336     C      0.718560000000     0.639430000000     0.638450000000     0.175221   
C337     C      0.689340000000     0.671180000000     0.680740000000    -0.239484   
C338     C      0.596220000000     0.695580000000     0.692380000000     0.148691   
C339     C      0.365620000000     0.327240000000     0.472120000000    -0.260859   
C340     C      0.440040000000     0.296790000000     0.446330000000     0.302544   
C341     C      0.450960000000     0.249400000000     0.447880000000     0.319076   
C342     C      0.388200000000     0.230990000000     0.474810000000    -0.490402   
C343     C      0.315030000000     0.260880000000     0.499460000000     0.34327    
C344     C      0.301580000000     0.309180000000     0.498460000000    -0.610314   
C345     C      0.221310000000     0.337680000000     0.526900000000     0.574246   
C346     C      0.129490000000     0.448630000000     0.564790000000    -1.04439    
C347     C      0.057100000000     0.479990000000     0.598810000000     0.328466   
C348     C      0.083410000000     0.491510000000     0.639470000000    -0.316131   
C349     C      0.105270000000     0.450020000000     0.670240000000     0.182393   
C350     C      0.131380000000     0.459820000000     0.711820000000    -0.249991   
C351     C      0.150600000000     0.418300000000     0.742100000000     0.160141   
C352     C      0.783930000000     0.083880000000     0.547860000000    -0.268925   
C353     C      0.805190000000     0.124160000000     0.548660000000     0.308287   
C354     C      0.791660000000     0.144970000000     0.590510000000     0.349718   
C355     C      0.761290000000     0.121880000000     0.629140000000    -0.548618   
C356     C      0.741260000000     0.081520000000     0.626360000000     0.429626   
C357     C      0.812400000000     0.190100000000     0.592100000000    -0.747907   
C358     C      0.552120000000     0.149590000000     0.816770000000     0.785305   
C359     C      0.594750000000     0.171750000000     0.779550000000    -1.32033    
C360     C      0.592030000000     0.167220000000     0.735320000000     0.136561   
C361     C      0.546390000000     0.139890000000     0.726530000000    -0.21694    
C362     C      0.504980000000     0.117660000000     0.762780000000     0.157008   
C363     C      0.505540000000     0.121990000000     0.807930000000    -0.231012   
C364     C      0.457720000000     0.096550000000     0.844610000000     0.131199   
C365     C      0.391050000000     0.092450000000     0.962850000000    -0.167813   
C366     C      0.333230000000     0.074910000000     0.002630000000    -0.257562   
C367     C      0.248090000000     0.111870000000     0.019550000000    -0.195462   
C368     C      0.196000000000     0.096300000000     0.064100000000    -0.209523   
C369     C      0.129000000000     0.100800000000     0.067600000000    -0.257776   
C370     C      0.067800000000     0.089400000000     0.117200000000    -0.215547   
C371     C      0.309830000000     0.196230000000     0.913310000000    -0.259783   
C372     C      0.239600000000     0.231100000000     0.913100000000    -0.225843   
C373     C      0.243260000000     0.277280000000     0.909600000000    -0.215022   
C374     C      0.318030000000     0.284820000000     0.906720000000    -0.257584   
C375     C      0.386050000000     0.248000000000     0.908300000000    -0.195463   
C376     C      0.167400000000     0.318800000000     0.909800000000    -0.209537   
C377     C      0.180070000000     0.080400000000     0.918260000000    -0.257775   
C378     C      0.114250000000     0.120020000000     0.918480000000    -0.215547   
C379     C      0.034050000000     0.120790000000     0.943110000000    -0.259781   
C380     C      0.014180000000     0.082980000000     0.969860000000    -0.225826   
C381     C      0.080140000000     0.044700000000     0.971020000000    -0.215022   
C382     C      0.162930000000     0.042090000000     0.946250000000    -0.2576     
C383     C      0.227950000000     0.000970000000     0.952130000000    -0.195454   
C384     C      0.438280000000     0.953370000000     0.912870000000    -0.209532   
C385     C      0.511020000000     0.913220000000     0.917940000000    -0.257775   
C386     C      0.552790000000     0.884770000000     0.874050000000    -0.215547   
C387     C      0.496440000000     0.860570000000     0.861550000000    -0.259778   
C388     C      0.541260000000     0.828820000000     0.819260000000    -0.225825   
C389     C      0.484180000000     0.804420000000     0.807620000000    -0.215023   
C390     C      0.664980000000     0.172760000000     0.027880000000    -0.2576     
C391     C      0.683160000000     0.203210000000     0.053670000000    -0.195455   
C392     C      0.648240000000     0.250600000000     0.052120000000    -0.209532   
C393     C      0.594000000000     0.269010000000     0.025190000000    -0.257775   
C394     C      0.575370000000     0.239120000000     0.000540000000    -0.215547   
C395     C      0.609220000000     0.190820000000     0.001540000000    -0.259777   
C396     C      0.585890000000     0.162320000000     0.973100000000    -0.225825   
C397     C      0.642910000000     0.051370000000     0.935210000000    -0.215022   
C398     C      0.635900000000     0.020010000000     0.901190000000    -0.257562   
C399     C      0.714390000000     0.008490000000     0.860530000000    -0.195462   
C400     C      0.725530000000     0.049980000000     0.829760000000    -0.209523   
C401     C      0.803020000000     0.040180000000     0.788180000000    -0.257776   
C402     C      0.811000000000     0.081700000000     0.757900000000    -0.215547   
C403     C      0.915670000000     0.416120000000     0.952140000000    -0.259783   
C404     C      0.978010000000     0.375840000000     0.951340000000    -0.225843   
C405     C      0.027140000000     0.355030000000     0.909490000000    -0.215022   
C406     C      0.012310000000     0.378120000000     0.870860000000    -0.257584   
C407     C      0.949140000000     0.418480000000     0.873640000000    -0.195463   
C408     C      0.094600000000     0.309900000000     0.907900000000    -0.209537   
N1       N      0.656680000000     0.888480000000     0.397940000000    -0.257775   
N2       N      0.675740000000     0.920940000000     0.421980000000    -0.215547   
N3       N      0.705920000000     0.911770000000     0.296390000000    -0.259781   
N4       N      0.763770000000     0.929600000000     0.502660000000    -0.225826   
N5       N      0.696780000000     0.939400000000     0.543840000000    -0.215022   
N6       N      0.407250000000     0.969820000000     0.382300000000    -0.2576     
N7       N      0.460400000000     0.938300000000     0.405500000000    -0.195454   
N8       N      0.184660000000     0.914070000000     0.062410000000    -0.209532   
N9       N      0.443100000000     0.611520000000     0.102060000000    -0.257775   
N10      N      0.518660000000     0.579060000000     0.078020000000    -0.215547   
N11      N      0.414080000000     0.588230000000     0.203610000000    -0.259778   
N12      N      0.696030000000     0.570400000000     0.997340000000    -0.225825   
N13      N      0.680020000000     0.560600000000     0.956160000000    -0.215023   
N14      N      0.259370000000     0.530180000000     0.117700000000    -0.2576     
N15      N      0.304200000000     0.561700000000     0.094500000000    -0.195455   
N16      N      0.661140000000     0.585930000000     0.437590000000    -0.209532   
N17      N      0.054620000000     0.602060000000     0.388480000000    -0.257775   
N18      N      0.097720000000     0.578020000000     0.420940000000    -0.215547   
N19      N      0.002310000000     0.703610000000     0.411770000000    -0.259777   
N20      N      0.266430000000     0.497340000000     0.429600000000    -0.225825   
N21      N      0.240620000000     0.456160000000     0.439400000000    -0.215022   
N22      N      0.789550000000     0.617700000000     0.469820000000    -0.444083   
N23      N      0.865900000000     0.594500000000     0.438300000000    -0.384983   
N24      N      0.247070000000     0.937590000000     0.414070000000    -0.387728   
N25      N      0.545160000000     0.897940000000     0.111520000000    -0.436458   
N26      N      0.596680000000     0.921980000000     0.079060000000    -0.377068   
N27      N      0.617690000000     0.796390000000     0.088230000000    -0.41105    
N28      N      0.693370000000     0.002660000000     0.070400000000    -0.436933   
N29      N      0.636180000000     0.043840000000     0.060600000000    -0.383495   
N30      N      0.377070000000     0.882300000000     0.030180000000    -0.411996   
N31      N      0.398700000000     0.905500000000     0.061700000000    -0.444056   
N32      N      0.098730000000     0.562410000000     0.085930000000    -0.384984   
N33      N      0.343320000000     0.111520000000     0.602060000000    -0.387748   
N34      N      0.324260000000     0.079060000000     0.578020000000    -0.436457   
N35      N      0.294080000000     0.088230000000     0.703610000000    -0.377067   
N36      N      0.236230000000     0.070400000000     0.497340000000    -0.411049   
N37      N      0.303220000000     0.060600000000     0.456160000000    -0.436935   
N38      N      0.592750000000     0.030180000000     0.617700000000    -0.383466   
N39      N      0.539600000000     0.061700000000     0.594500000000    -0.411996   
N40      N      0.815340000000     0.085930000000     0.937590000000    -0.444157   
N41      N      0.556900000000     0.388480000000     0.897940000000    -0.384985   
N42      N      0.481340000000     0.420940000000     0.921980000000    -0.387666   
N43      N      0.585920000000     0.411770000000     0.796390000000    -0.436457   
N44      N      0.303970000000     0.429600000000     0.002660000000    -0.377067   
N45      N      0.319980000000     0.439400000000     0.043840000000    -0.41105    
N46      N      0.740630000000     0.469820000000     0.882300000000    -0.436934   
N47      N      0.695800000000     0.438300000000     0.905500000000    -0.383441   
N48      N      0.338860000000     0.414070000000     0.562410000000    -0.411994   
N49      N      0.945380000000     0.397940000000     0.611520000000    -0.444159   
N50      N      0.902280000000     0.421980000000     0.579060000000    -0.384986   
N51      N      0.997690000000     0.296390000000     0.588230000000    -0.387667   
N52      N      0.733570000000     0.502660000000     0.570400000000    -0.436456   
N53      N      0.759380000000     0.543840000000     0.560600000000    -0.377066   
N54      N      0.210450000000     0.382300000000     0.530180000000    -0.411049   
N55      N      0.134100000000     0.405500000000     0.561700000000    -0.436933   
N56      N      0.752930000000     0.062410000000     0.585930000000    -0.383441   
N57      N      0.454840000000     0.102060000000     0.888480000000    -0.411994   
N58      N      0.403320000000     0.078020000000     0.920940000000    -0.444083   
N59      N      0.382310000000     0.203610000000     0.911770000000    -0.384983   
N60      N      0.306630000000     0.997340000000     0.929600000000    -0.387728   
N61      N      0.363820000000     0.956160000000     0.939400000000    -0.436458   
N62      N      0.622930000000     0.117700000000     0.969820000000    -0.377068   
N63      N      0.601300000000     0.094500000000     0.938300000000    -0.41105    
N64      N      0.901270000000     0.437590000000     0.914070000000    -0.436933   
O1       O      0.583580000000     0.859070000000     0.343110000000    -0.383495   
O2       O      0.746660000000     0.833590000000     0.429890000000    -0.411996   
O3       O      0.605680000000     0.971330000000     0.376050000000    -0.444056   
O4       O      0.853330000000     0.891730000000     0.418970000000    -0.384984   
O5       O      0.812900000000     0.980100000000   