data_c6cc00589f_c6cc00589f2_clean

_audit_creation_method RASPA-1.0
_audit_creation_date 2025-1-27
_audit_author_name ''

_cell_length_a    17.1168
_cell_length_b    17.1168
_cell_length_c    17.1168
_cell_angle_alpha 90
_cell_angle_beta  90
_cell_angle_gamma 90
_cell_volume      40119.7

_symmetry_cell_setting          triclinic
_symmetry_space_group_name_Hall 'P 1'
_symmetry_space_group_name_H-M  'P 1'
_symmetry_Int_Tables_number     1

_symmetry_equiv_pos_as_xyz 'x,y,z'

loop_
_atom_site_label
_atom_site_type_symbol
_atom_site_fract_x
_atom_site_fract_y
_atom_site_fract_z
_atom_site_charge
H        H      0.440950000000     0.185050000000     0.222400000000     0.172      
H        H      0.449300000000     0.227450000000     0.207250000000     0.172      
H        H      0.431100000000     0.196250000000     0.179100000000     0.172      
H        H      0.190950000000     0.435050000000     0.472400000000     0.172      
H        H      0.199300000000     0.477450000000     0.457250000000     0.172      
H        H      0.181100000000     0.446250000000     0.429100000000     0.172      
H        H      0.059050000000     0.314950000000     0.222400000000     0.172      
H        H      0.050700000000     0.272550000000     0.207250000000     0.172      
H        H      0.068900000000     0.303750000000     0.179100000000     0.172      
H        H      0.309050000000     0.064950000000     0.472400000000     0.172      
H        H      0.300700000000     0.022550000000     0.457250000000     0.172      
H        H      0.318900000000     0.053750000000     0.429100000000     0.172      
H        H      0.059050000000     0.185050000000     0.277600000000     0.172      
H        H      0.050700000000     0.227450000000     0.292750000000     0.172      
H        H      0.068900000000     0.196250000000     0.320900000000     0.172      
H        H      0.309050000000     0.435050000000     0.027600000000     0.172      
H        H      0.300700000000     0.477450000000     0.042750000000     0.172      
H        H      0.318900000000     0.446250000000     0.070900000000     0.172      
H        H      0.440950000000     0.314950000000     0.277600000000     0.172      
H        H      0.449300000000     0.272550000000     0.292750000000     0.172      
H        H      0.431100000000     0.303750000000     0.320900000000     0.172      
H        H      0.190950000000     0.064950000000     0.027600000000     0.172      
H        H      0.199300000000     0.022550000000     0.042750000000     0.172      
H        H      0.181100000000     0.053750000000     0.070900000000     0.172      
H        H      0.222400000000     0.440950000000     0.185050000000     0.172      
H        H      0.207250000000     0.449300000000     0.227450000000     0.172      
H        H      0.179100000000     0.431100000000     0.196250000000     0.172      
H        H      0.472400000000     0.190950000000     0.435050000000     0.172      
H        H      0.457250000000     0.199300000000     0.477450000000     0.172      
H        H      0.429100000000     0.181100000000     0.446250000000     0.172      
H        H      0.222400000000     0.059050000000     0.314950000000     0.172      
H        H      0.207250000000     0.050700000000     0.272550000000     0.172      
H        H      0.179100000000     0.068900000000     0.303750000000     0.172      
H        H      0.472400000000     0.309050000000     0.064950000000     0.172      
H        H      0.457250000000     0.300700000000     0.022550000000     0.172      
H        H      0.429100000000     0.318900000000     0.053750000000     0.172      
H        H      0.277600000000     0.059050000000     0.185050000000     0.172      
H        H      0.292750000000     0.050700000000     0.227450000000     0.172      
H        H      0.320900000000     0.068900000000     0.196250000000     0.172      
H        H      0.027600000000     0.309050000000     0.435050000000     0.172      
H        H      0.042750000000     0.300700000000     0.477450000000     0.172      
H        H      0.070900000000     0.318900000000     0.446250000000     0.172      
H        H      0.277600000000     0.440950000000     0.314950000000     0.172      
H        H      0.292750000000     0.449300000000     0.272550000000     0.172      
H        H      0.320900000000     0.431100000000     0.303750000000     0.172      
H        H      0.027600000000     0.190950000000     0.064950000000     0.172      
H        H      0.042750000000     0.199300000000     0.022550000000     0.172      
H        H      0.070900000000     0.181100000000     0.053750000000     0.172      
H        H      0.185050000000     0.222400000000     0.440950000000     0.172      
H        H      0.227450000000     0.207250000000     0.449300000000     0.172      
H        H      0.196250000000     0.179100000000     0.431100000000     0.172      
H        H      0.435050000000     0.472400000000     0.190950000000     0.172      
H        H      0.477450000000     0.457250000000     0.199300000000     0.172      
H        H      0.446250000000     0.429100000000     0.181100000000     0.172      
H        H      0.314950000000     0.222400000000     0.059050000000     0.172      
H        H      0.272550000000     0.207250000000     0.050700000000     0.172      
H        H      0.303750000000     0.179100000000     0.068900000000     0.172      
H        H      0.064950000000     0.472400000000     0.309050000000     0.172      
H        H      0.022550000000     0.457250000000     0.300700000000     0.172      
H        H      0.053750000000     0.429100000000     0.318900000000     0.172      
H        H      0.185050000000     0.277600000000     0.059050000000     0.172      
H        H      0.227450000000     0.292750000000     0.050700000000     0.172      
H        H      0.196250000000     0.320900000000     0.068900000000     0.172      
H        H      0.435050000000     0.027600000000     0.309050000000     0.172      
H        H      0.477450000000     0.042750000000     0.300700000000     0.172      
H        H      0.446250000000     0.070900000000     0.318900000000     0.172      
H        H      0.314950000000     0.277600000000     0.440950000000     0.172      
H        H      0.272550000000     0.292750000000     0.449300000000     0.172      
H        H      0.303750000000     0.320900000000     0.431100000000     0.172      
H        H      0.064950000000     0.027600000000     0.190950000000     0.172      
H        H      0.022550000000     0.042750000000     0.199300000000     0.172      
H        H      0.053750000000     0.070900000000     0.181100000000     0.172      
H        H      0.185050000000     0.440950000000     0.222400000000     0.172      
H        H      0.227450000000     0.449300000000     0.207250000000     0.172      
H        H      0.196250000000     0.431100000000     0.179100000000     0.172      
H        H      0.435050000000     0.190950000000     0.472400000000     0.172      
H        H      0.477450000000     0.199300000000     0.457250000000     0.172      
H        H      0.446250000000     0.181100000000     0.429100000000     0.172      
H        H      0.314950000000     0.059050000000     0.222400000000     0.172      
H        H      0.272550000000     0.050700000000     0.207250000000     0.172      
H        H      0.303750000000     0.068900000000     0.179100000000     0.172      
H        H      0.064950000000     0.309050000000     0.472400000000     0.172      
H        H      0.022550000000     0.300700000000     0.457250000000     0.172      
H        H      0.053750000000     0.318900000000     0.429100000000     0.172      
H        H      0.185050000000     0.059050000000     0.277600000000     0.172      
H        H      0.227450000000     0.050700000000     0.292750000000     0.172      
H        H      0.196250000000     0.068900000000     0.320900000000     0.172      
H        H      0.435050000000     0.309050000000     0.027600000000     0.172      
H        H      0.477450000000     0.300700000000     0.042750000000     0.172      
H        H      0.446250000000     0.318900000000     0.070900000000     0.172      
H        H      0.314950000000     0.440950000000     0.277600000000     0.172      
H        H      0.272550000000     0.449300000000     0.292750000000     0.172      
H        H      0.303750000000     0.431100000000     0.320900000000     0.172      
H        H      0.064950000000     0.190950000000     0.027600000000     0.172      
H        H      0.022550000000     0.199300000000     0.042750000000     0.172      
H        H      0.053750000000     0.181100000000     0.070900000000     0.172      
H        H      0.440950000000     0.222400000000     0.185050000000     0.172      
H        H      0.449300000000     0.207250000000     0.227450000000     0.172      
H        H      0.431100000000     0.179100000000     0.196250000000     0.172      
H        H      0.190950000000     0.472400000000     0.435050000000     0.172      
H        H      0.199300000000     0.457250000000     0.477450000000     0.172      
H        H      0.181100000000     0.429100000000     0.446250000000     0.172      
H        H      0.059050000000     0.222400000000     0.314950000000     0.172      
H        H      0.050700000000     0.207250000000     0.272550000000     0.172      
H        H      0.068900000000     0.179100000000     0.303750000000     0.172      
H        H      0.309050000000     0.472400000000     0.064950000000     0.172      
H        H      0.300700000000     0.457250000000     0.022550000000     0.172      
H        H      0.318900000000     0.429100000000     0.053750000000     0.172      
H        H      0.059050000000     0.277600000000     0.185050000000     0.172      
H        H      0.050700000000     0.292750000000     0.227450000000     0.172      
H        H      0.068900000000     0.320900000000     0.196250000000     0.172      
H        H      0.309050000000     0.027600000000     0.435050000000     0.172      
H        H      0.300700000000     0.042750000000     0.477450000000     0.172      
H        H      0.318900000000     0.070900000000     0.446250000000     0.172      
H        H      0.440950000000     0.277600000000     0.314950000000     0.172      
H        H      0.449300000000     0.292750000000     0.272550000000     0.172      
H        H      0.431100000000     0.320900000000     0.303750000000     0.172      
H        H      0.190950000000     0.027600000000     0.064950000000     0.172      
H        H      0.199300000000     0.042750000000     0.022550000000     0.172      
H        H      0.181100000000     0.070900000000     0.053750000000     0.172      
H        H      0.222400000000     0.185050000000     0.440950000000     0.172      
H        H      0.207250000000     0.227450000000     0.449300000000     0.172      
H        H      0.179100000000     0.196250000000     0.431100000000     0.172      
H        H      0.472400000000     0.435050000000     0.190950000000     0.172      
H        H      0.457250000000     0.477450000000     0.199300000000     0.172      
H        H      0.429100000000     0.446250000000     0.181100000000     0.172      
H        H      0.222400000000     0.314950000000     0.059050000000     0.172      
H        H      0.207250000000     0.272550000000     0.050700000000     0.172      
H        H      0.179100000000     0.303750000000     0.068900000000     0.172      
H        H      0.472400000000     0.064950000000     0.309050000000     0.172      
H        H      0.457250000000     0.022550000000     0.300700000000     0.172      
H        H      0.429100000000     0.053750000000     0.318900000000     0.172      
H        H      0.277600000000     0.185050000000     0.059050000000     0.172      
H        H      0.292750000000     0.227450000000     0.050700000000     0.172      
H        H      0.320900000000     0.196250000000     0.068900000000     0.172      
H        H      0.027600000000     0.435050000000     0.309050000000     0.172      
H        H      0.042750000000     0.477450000000     0.300700000000     0.172      
H        H      0.070900000000     0.446250000000     0.318900000000     0.172      
H        H      0.277600000000     0.314950000000     0.440950000000     0.172      
H        H      0.292750000000     0.272550000000     0.449300000000     0.172      
H        H      0.320900000000     0.303750000000     0.431100000000     0.172      
H        H      0.027600000000     0.064950000000     0.190950000000     0.172      
H        H      0.042750000000     0.022550000000     0.199300000000     0.172      
H        H      0.070900000000     0.053750000000     0.181100000000     0.172      
H        H      0.440950000000     0.185050000000     0.722400000000     0.172      
H        H      0.449300000000     0.227450000000     0.707250000000     0.172      
H        H      0.431100000000     0.196250000000     0.679100000000     0.172      
H        H      0.190950000000     0.435050000000     0.972400000000     0.172      
H        H      0.199300000000     0.477450000000     0.957250000000     0.172      
H        H      0.181100000000     0.446250000000     0.929100000000     0.172      
H        H      0.059050000000     0.314950000000     0.722400000000     0.172      
H        H      0.050700000000     0.272550000000     0.707250000000     0.172      
H        H      0.068900000000     0.303750000000     0.679100000000     0.172      
H        H      0.309050000000     0.064950000000     0.972400000000     0.172      
H        H      0.300700000000     0.022550000000     0.957250000000     0.172      
H        H      0.318900000000     0.053750000000     0.929100000000     0.172      
H        H      0.059050000000     0.185050000000     0.777600000000     0.172      
H        H      0.050700000000     0.227450000000     0.792750000000     0.172      
H        H      0.068900000000     0.196250000000     0.820900000000     0.172      
H        H      0.309050000000     0.435050000000     0.527600000000     0.172      
H        H      0.300700000000     0.477450000000     0.542750000000     0.172      
H        H      0.318900000000     0.446250000000     0.570900000000     0.172      
H        H      0.440950000000     0.314950000000     0.777600000000     0.172      
H        H      0.449300000000     0.272550000000     0.792750000000     0.172      
H        H      0.431100000000     0.303750000000     0.820900000000     0.172      
H        H      0.190950000000     0.064950000000     0.527600000000     0.172      
H        H      0.199300000000     0.022550000000     0.542750000000     0.172      
H        H      0.181100000000     0.053750000000     0.570900000000     0.172      
H        H      0.222400000000     0.440950000000     0.685050000000     0.172      
H        H      0.207250000000     0.449300000000     0.727450000000     0.172      
H        H      0.179100000000     0.431100000000     0.696250000000     0.172      
H        H      0.472400000000     0.190950000000     0.935050000000     0.172      
H        H      0.457250000000     0.199300000000     0.977450000000     0.172      
H        H      0.429100000000     0.181100000000     0.946250000000     0.172      
H        H      0.222400000000     0.059050000000     0.814950000000     0.172      
H        H      0.207250000000     0.050700000000     0.772550000000     0.172      
H        H      0.179100000000     0.068900000000     0.803750000000     0.172      
H        H      0.472400000000     0.309050000000     0.564950000000     0.172      
H        H      0.457250000000     0.300700000000     0.522550000000     0.172      
H        H      0.429100000000     0.318900000000     0.553750000000     0.172      
H        H      0.277600000000     0.059050000000     0.685050000000     0.172      
H        H      0.292750000000     0.050700000000     0.727450000000     0.172      
H        H      0.320900000000     0.068900000000     0.696250000000     0.172      
H        H      0.027600000000     0.309050000000     0.935050000000     0.172      
H        H      0.042750000000     0.300700000000     0.977450000000     0.172      
H        H      0.070900000000     0.318900000000     0.946250000000     0.172      
H        H      0.277600000000     0.440950000000     0.814950000000     0.172      
H        H      0.292750000000     0.449300000000     0.772550000000     0.172      
H        H      0.320900000000     0.431100000000     0.803750000000     0.172      
H        H      0.027600000000     0.190950000000     0.564950000000     0.172      
H        H      0.042750000000     0.199300000000     0.522550000000     0.172      
H        H      0.070900000000     0.181100000000     0.553750000000     0.172      
H        H      0.185050000000     0.222400000000     0.940950000000     0.172      
H        H      0.227450000000     0.207250000000     0.949300000000     0.172      
H        H      0.196250000000     0.179100000000     0.931100000000     0.172      
H        H      0.435050000000     0.472400000000     0.690950000000     0.172      
H        H      0.477450000000     0.457250000000     0.699300000000     0.172      
H        H      0.446250000000     0.429100000000     0.681100000000     0.172      
H        H      0.314950000000     0.222400000000     0.559050000000     0.172      
H        H      0.272550000000     0.207250000000     0.550700000000     0.172      
H        H      0.303750000000     0.179100000000     0.568900000000     0.172      
H        H      0.064950000000     0.472400000000     0.809050000000     0.172      
H        H      0.022550000000     0.457250000000     0.800700000000     0.172      
H        H      0.053750000000     0.429100000000     0.818900000000     0.172      
H        H      0.185050000000     0.277600000000     0.559050000000     0.172      
H        H      0.227450000000     0.292750000000     0.550700000000     0.172      
H        H      0.196250000000     0.320900000000     0.568900000000     0.172      
H        H      0.435050000000     0.027600000000     0.809050000000     0.172      
H        H      0.477450000000     0.042750000000     0.800700000000     0.172      
H        H      0.446250000000     0.070900000000     0.818900000000     0.172      
H        H      0.314950000000     0.277600000000     0.940950000000     0.172      
H        H      0.272550000000     0.292750000000     0.949300000000     0.172      
H        H      0.303750000000     0.320900000000     0.931100000000     0.172      
H        H      0.064950000000     0.027600000000     0.690950000000     0.172      
H        H      0.022550000000     0.042750000000     0.699300000000     0.172      
H        H      0.053750000000     0.070900000000     0.681100000000     0.172      
H        H      0.185050000000     0.440950000000     0.722400000000     0.172      
H        H      0.227450000000     0.449300000000     0.707250000000     0.172      
H        H      0.196250000000     0.431100000000     0.679100000000     0.172      
H        H      0.435050000000     0.190950000000     0.972400000000     0.172      
H        H      0.477450000000     0.199300000000     0.957250000000     0.172      
H        H      0.446250000000     0.181100000000     0.929100000000     0.172      
H        H      0.314950000000     0.059050000000     0.722400000000     0.172      
H        H      0.272550000000     0.050700000000     0.707250000000     0.172      
H        H      0.303750000000     0.068900000000     0.679100000000     0.172      
H        H      0.064950000000     0.309050000000     0.972400000000     0.172      
H        H      0.022550000000     0.300700000000     0.957250000000     0.172      
H        H      0.053750000000     0.318900000000     0.929100000000     0.172      
H        H      0.185050000000     0.059050000000     0.777600000000     0.172      
H        H      0.227450000000     0.050700000000     0.792750000000     0.172      
H        H      0.196250000000     0.068900000000     0.820900000000     0.172      
H        H      0.435050000000     0.309050000000     0.527600000000     0.172      
H        H      0.477450000000     0.300700000000     0.542750000000     0.172      
H        H      0.446250000000     0.318900000000     0.570900000000     0.172      
H        H      0.314950000000     0.440950000000     0.777600000000     0.172      
H        H      0.272550000000     0.449300000000     0.792750000000     0.172      
H        H      0.303750000000     0.431100000000     0.820900000000     0.172      
H        H      0.064950000000     0.190950000000     0.527600000000     0.172      
H        H      0.022550000000     0.199300000000     0.542750000000     0.172      
H        H      0.053750000000     0.181100000000     0.570900000000     0.172      
H        H      0.440950000000     0.222400000000     0.685050000000     0.172      
H        H      0.449300000000     0.207250000000     0.727450000000     0.172      
H        H      0.431100000000     0.179100000000     0.696250000000     0.172      
H        H      0.190950000000     0.472400000000     0.935050000000     0.172      
H        H      0.199300000000     0.457250000000     0.977450000000     0.172      
H        H      0.181100000000     0.429100000000     0.946250000000     0.172      
H        H      0.059050000000     0.222400000000     0.814950000000     0.172      
H        H      0.050700000000     0.207250000000     0.772550000000     0.172      
H        H      0.068900000000     0.179100000000     0.803750000000     0.172      
H        H      0.309050000000     0.472400000000     0.564950000000     0.172      
H        H      0.300700000000     0.457250000000     0.522550000000     0.172      
H        H      0.318900000000     0.429100000000     0.553750000000     0.172      
H        H      0.059050000000     0.277600000000     0.685050000000     0.172      
H        H      0.050700000000     0.292750000000     0.727450000000     0.172      
H        H      0.068900000000     0.320900000000     0.696250000000     0.172      
H        H      0.309050000000     0.027600000000     0.935050000000     0.172      
H        H      0.300700000000     0.042750000000     0.977450000000     0.172      
H        H      0.318900000000     0.070900000000     0.946250000000     0.172      
H        H      0.440950000000     0.277600000000     0.814950000000     0.172      
H        H      0.449300000000     0.292750000000     0.772550000000     0.172      
H        H      0.431100000000     0.320900000000     0.803750000000     0.172      
H        H      0.190950000000     0.027600000000     0.564950000000     0.172      
H        H      0.199300000000     0.042750000000     0.522550000000     0.172      
H        H      0.181100000000     0.070900000000     0.553750000000     0.172      
H        H      0.222400000000     0.185050000000     0.940950000000     0.172      
H        H      0.207250000000     0.227450000000     0.949300000000     0.172      
H        H      0.179100000000     0.196250000000     0.931100000000     0.172      
H        H      0.472400000000     0.435050000000     0.690950000000     0.172      
H        H      0.457250000000     0.477450000000     0.699300000000     0.172      
H        H      0.429100000000     0.446250000000     0.681100000000     0.172      
H        H      0.222400000000     0.314950000000     0.559050000000     0.172      
H        H      0.207250000000     0.272550000000     0.550700000000     0.172      
H        H      0.179100000000     0.303750000000     0.568900000000     0.172      
H        H      0.472400000000     0.064950000000     0.809050000000     0.172      
H        H      0.457250000000     0.022550000000     0.800700000000     0.172      
H        H      0.429100000000     0.053750000000     0.818900000000     0.172      
H        H      0.277600000000     0.185050000000     0.559050000000     0.172      
H        H      0.292750000000     0.227450000000     0.550700000000     0.172      
H        H      0.320900000000     0.196250000000     0.568900000000     0.172      
H        H      0.027600000000     0.435050000000     0.809050000000     0.172      
H        H      0.042750000000     0.477450000000     0.800700000000     0.172      
H        H      0.070900000000     0.446250000000     0.818900000000     0.172      
H        H      0.277600000000     0.314950000000     0.940950000000     0.172      
H        H      0.292750000000     0.272550000000     0.949300000000     0.172      
H        H      0.320900000000     0.303750000000     0.931100000000     0.172      
H        H      0.027600000000     0.064950000000     0.690950000000     0.172      
H        H      0.042750000000     0.022550000000     0.699300000000     0.172      
H        H      0.070900000000     0.053750000000     0.681100000000     0.172      
H        H      0.440950000000     0.685050000000     0.222400000000     0.172      
H        H      0.449300000000     0.727450000000     0.207250000000     0.172      
H        H      0.431100000000     0.696250000000     0.179100000000     0.172      
H        H      0.190950000000     0.935050000000     0.472400000000     0.172      
H        H      0.199300000000     0.977450000000     0.457250000000     0.172      
H        H      0.181100000000     0.946250000000     0.429100000000     0.172      
H        H      0.059050000000     0.814950000000     0.222400000000     0.172      
H        H      0.050700000000     0.772550000000     0.207250000000     0.172      
H        H      0.068900000000     0.803750000000     0.179100000000     0.172      
H        H      0.309050000000     0.564950000000     0.472400000000     0.172      
H        H      0.300700000000     0.522550000000     0.457250000000     0.172      
H        H      0.318900000000     0.553750000000     0.429100000000     0.172      
H        H      0.059050000000     0.685050000000     0.277600000000     0.172      
H        H      0.050700000000     0.727450000000     0.292750000000     0.172      
H        H      0.068900000000     0.696250000000     0.320900000000     0.172      
H        H      0.309050000000     0.935050000000     0.027600000000     0.172      
H        H      0.300700000000     0.977450000000     0.042750000000     0.172      
H        H      0.318900000000     0.946250000000     0.070900000000     0.172      
H        H      0.440950000000     0.814950000000     0.277600000000     0.172      
H        H      0.449300000000     0.772550000000     0.292750000000     0.172      
H        H      0.431100000000     0.803750000000     0.320900000000     0.172      
H        H      0.190950000000     0.564950000000     0.027600000000     0.172      
H        H      0.199300000000     0.522550000000     0.042750000000     0.172      
H        H      0.181100000000     0.553750000000     0.070900000000     0.172      
H        H      0.222400000000     0.940950000000     0.185050000000     0.172      
H        H      0.207250000000     0.949300000000     0.227450000000     0.172      
H        H      0.179100000000     0.931100000000     0.196250000000     0.172      
H        H      0.472400000000     0.690950000000     0.435050000000     0.172      
H        H      0.457250000000     0.699300000000     0.477450000000     0.172      
H        H      0.429100000000     0.681100000000     0.446250000000     0.172      
H        H      0.222400000000     0.559050000000     0.314950000000     0.172      
H        H      0.207250000000     0.550700000000     0.272550000000     0.172      
H        H      0.179100000000     0.568900000000     0.303750000000     0.172      
H        H      0.472400000000     0.809050000000     0.064950000000     0.172      
H        H      0.457250000000     0.800700000000     0.022550000000     0.172      
H        H      0.429100000000     0.818900000000     0.053750000000     0.172      
H        H      0.277600000000     0.559050000000     0.185050000000     0.172      
H        H      0.292750000000     0.550700000000     0.227450000000     0.172      
H        H      0.320900000000     0.568900000000     0.196250000000     0.172      
H        H      0.027600000000     0.809050000000     0.435050000000     0.172      
H        H      0.042750000000     0.800700000000     0.477450000000     0.172      
H        H      0.070900000000     0.818900000000     0.446250000000     0.172      
H        H      0.277600000000     0.940950000000     0.314950000000     0.172      
H        H      0.292750000000     0.949300000000     0.272550000000     0.172      
H        H      0.320900000000     0.931100000000     0.303750000000     0.172      
H        H      0.027600000000     0.690950000000     0.064950000000     0.172      
H        H      0.042750000000     0.699300000000     0.022550000000     0.172      
H        H      0.070900000000     0.681100000000     0.053750000000     0.172      
H        H      0.185050000000     0.722400000000     0.440950000000     0.172      
H        H      0.227450000000     0.707250000000     0.449300000000     0.172      
H        H      0.196250000000     0.679100000000     0.431100000000     0.172      
H        H      0.435050000000     0.972400000000     0.190950000000     0.172      
H        H      0.477450000000     0.957250000000     0.199300000000     0.172      
H        H      0.446250000000     0.929100000000     0.181100000000     0.172      
H        H      0.314950000000     0.722400000000     0.059050000000     0.172      
H        H      0.272550000000     0.707250000000     0.050700000000     0.172      
H        H      0.303750000000     0.679100000000     0.068900000000     0.172      
H        H      0.064950000000     0.972400000000     0.309050000000     0.172      
H        H      0.022550000000     0.957250000000     0.300700000000     0.172      
H        H      0.053750000000     0.929100000000     0.318900000000     0.172      
H        H      0.185050000000     0.777600000000     0.059050000000     0.172      
H        H      0.227450000000     0.792750000000     0.050700000000     0.172      
H        H      0.196250000000     0.820900000000     0.068900000000     0.172      
H        H      0.435050000000     0.527600000000     0.309050000000     0.172      
H        H      0.477450000000     0.542750000000     0.300700000000     0.172      
H        H      0.446250000000     0.570900000000     0.318900000000     0.172      
H        H      0.314950000000     0.777600000000     0.440950000000     0.172      
H        H      0.272550000000     0.792750000000     0.449300000000     0.172      
H        H      0.303750000000     0.820900000000     0.431100000000     0.172      
H        H      0.064950000000     0.527600000000     0.190950000000     0.172      
H        H      0.022550000000     0.542750000000     0.199300000000     0.172      
H        H      0.053750000000     0.570900000000     0.181100000000     0.172      
H        H      0.185050000000     0.940950000000     0.222400000000     0.172      
H        H      0.227450000000     0.949300000000     0.207250000000     0.172      
H        H      0.196250000000     0.931100000000     0.179100000000     0.172      
H        H      0.435050000000     0.690950000000     0.472400000000     0.172      
H        H      0.477450000000     0.699300000000     0.457250000000     0.172      
H        H      0.446250000000     0.681100000000     0.429100000000     0.172      
H        H      0.314950000000     0.559050000000     0.222400000000     0.172      
H        H      0.272550000000     0.550700000000     0.207250000000     0.172      
H        H      0.303750000000     0.568900000000     0.179100000000     0.172      
H        H      0.064950000000     0.809050000000     0.472400000000     0.172      
H        H      0.022550000000     0.800700000000     0.457250000000     0.172      
H        H      0.053750000000     0.818900000000     0.429100000000     0.172      
H        H      0.185050000000     0.559050000000     0.277600000000     0.172      
H        H      0.227450000000     0.550700000000     0.292750000000     0.172      
H        H      0.196250000000     0.568900000000     0.320900000000     0.172      
H        H      0.435050000000     0.809050000000     0.027600000000     0.172      
H        H      0.477450000000     0.800700000000     0.042750000000     0.172      
H        H      0.446250000000     0.818900000000     0.070900000000     0.172      
H        H      0.314950000000     0.940950000000     0.277600000000     0.172      
H        H      0.272550000000     0.949300000000     0.292750000000     0.172      
H        H      0.303750000000     0.931100000000     0.320900000000     0.172      
H        H      0.064950000000     0.690950000000     0.027600000000     0.172      
H        H      0.022550000000     0.699300000000     0.042750000000     0.172      
H        H      0.053750000000     0.681100000000     0.070900000000     0.172      
H        H      0.440950000000     0.722400000000     0.185050000000     0.172      
H        H      0.449300000000     0.707250000000     0.227450000000     0.172      
H        H      0.431100000000     0.679100000000     0.196250000000     0.172      
H        H      0.190950000000     0.972400000000     0.435050000000     0.172      
H        H      0.199300000000     0.957250000000     0.477450000000     0.172      
H        H      0.181100000000     0.929100000000     0.446250000000     0.172      
H        H      0.059050000000     0.722400000000     0.314950000000     0.172      
H        H      0.050700000000     0.707250000000     0.272550000000     0.172      
H        H      0.068900000000     0.679100000000     0.303750000000     0.172      
H        H      0.309050000000     0.972400000000     0.064950000000     0.172      
H        H      0.300700000000     0.957250000000     0.022550000000     0.172      
H        H      0.318900000000     0.929100000000     0.053750000000     0.172      
H        H      0.059050000000     0.777600000000     0.185050000000     0.172      
H        H      0.050700000000     0.792750000000     0.227450000000     0.172      
H        H      0.068900000000     0.820900000000     0.196250000000     0.172      
H        H      0.309050000000     0.527600000000     0.435050000000     0.172      
H        H      0.300700000000     0.542750000000     0.477450000000     0.172      
H        H      0.318900000000     0.570900000000     0.446250000000     0.172      
H        H      0.440950000000     0.777600000000     0.314950000000     0.172      
H        H      0.449300000000     0.792750000000     0.272550000000     0.172      
H        H      0.431100000000     0.820900000000     0.303750000000     0.172      
H        H      0.190950000000     0.527600000000     0.064950000000     0.172      
H        H      0.199300000000     0.542750000000     0.022550000000     0.172      
H        H      0.181100000000     0.570900000000     0.053750000000     0.172      
H        H      0.222400000000     0.685050000000     0.440950000000     0.172      
H        H      0.207250000000     0.727450000000     0.449300000000     0.172      
H        H      0.179100000000     0.696250000000     0.431100000000     0.172      
H        H      0.472400000000     0.935050000000     0.190950000000     0.172      
H        H      0.457250000000     0.977450000000     0.199300000000     0.172      
H        H      0.429100000000     0.946250000000     0.181100000000     0.172      
H        H      0.222400000000     0.814950000000     0.059050000000     0.172      
H        H      0.207250000000     0.772550000000     0.050700000000     0.172      
H        H      0.179100000000     0.803750000000     0.068900000000     0.172      
H        H      0.472400000000     0.564950000000     0.309050000000     0.172      
H        H      0.457250000000     0.522550000000     0.300700000000     0.172      
H        H      0.429100000000     0.553750000000     0.318900000000     0.172      
H        H      0.277600000000     0.685050000000     0.059050000000     0.172      
H        H      0.292750000000     0.727450000000     0.050700000000     0.172      
H        H      0.320900000000     0.696250000000     0.068900000000     0.172      
H        H      0.027600000000     0.935050000000     0.309050000000     0.172      
H        H      0.042750000000     0.977450000000     0.300700000000     0.172      
H        H      0.070900000000     0.946250000000     0.318900000000     0.172      
H        H      0.277600000000     0.814950000000     0.440950000000     0.172      
H        H      0.292750000000     0.772550000000     0.449300000000     0.172      
H        H      0.320900000000     0.803750000000     0.431100000000     0.172      
H        H      0.027600000000     0.564950000000     0.190950000000     0.172      
H        H      0.042750000000     0.522550000000     0.199300000000     0.172      
H        H      0.070900000000     0.553750000000     0.181100000000     0.172      
H        H      0.440950000000     0.685050000000     0.722400000000     0.172      
H        H      0.449300000000     0.727450000000     0.707250000000     0.172      
H        H      0.431100000000     0.696250000000     0.679100000000     0.172      
H        H      0.190950000000     0.935050000000     0.972400000000     0.172      
H        H      0.199300000000     0.977450000000     0.957250000000     0.172      
H        H      0.181100000000     0.946250000000     0.929100000000     0.172      
H        H      0.059050000000     0.814950000000     0.722400000000     0.172      
H        H      0.050700000000     0.772550000000     0.707250000000     0.172      
H        H      0.068900000000     0.803750000000     0.679100000000     0.172      
H        H      0.309050000000     0.564950000000     0.972400000000     0.172      
H        H      0.300700000000     0.522550000000     0.957250000000     0.172      
H        H      0.318900000000     0.553750000000     0.929100000000     0.172      
H        H      0.059050000000     0.685050000000     0.777600000000     0.172      
H        H      0.050700000000     0.727450000000     0.792750000000     0.172      
H        H      0.068900000000     0.696250000000     0.820900000000     0.172      
H        H      0.309050000000     0.935050000000     0.527600000000     0.172      
H        H      0.300700000000     0.977450000000     0.542750000000     0.172      
H        H      0.318900000000     0.946250000000     0.570900000000     0.172      
H        H      0.440950000000     0.814950000000     0.777600000000     0.172      
H        H      0.449300000000     0.772550000000     0.792750000000     0.172      
H        H      0.431100000000     0.803750000000     0.820900000000     0.172      
H        H      0.190950000000     0.564950000000     0.527600000000     0.172      
H        H      0.199300000000     0.522550000000     0.542750000000     0.172      
H        H      0.181100000000     0.553750000000     0.570900000000     0.172      
H        H      0.222400000000     0.940950000000     0.685050000000     0.172      
H        H      0.207250000000     0.949300000000     0.727450000000     0.172      
H        H      0.179100000000     0.931100000000     0.696250000000     0.172      
H        H      0.472400000000     0.690950000000     0.935050000000     0.172      
H        H      0.457250000000     0.699300000000     0.977450000000     0.172      
H        H      0.429100000000     0.681100000000     0.946250000000     0.172      
H        H      0.222400000000     0.559050000000     0.814950000000     0.172      
H        H      0.207250000000     0.550700000000     0.772550000000     0.172      
H        H      0.179100000000     0.568900000000     0.803750000000     0.172      
H        H      0.472400000000     0.809050000000     0.564950000000     0.172      
H        H      0.457250000000     0.800700000000     0.522550000000     0.172      
H        H      0.429100000000     0.818900000000     0.553750000000     0.172      
H        H      0.277600000000     0.559050000000     0.685050000000     0.172      
H        H      0.292750000000     0.550700000000     0.727450000000     0.172      
H        H      0.320900000000     0.568900000000     0.696250000000     0.172      
H        H      0.027600000000     0.809050000000     0.935050000000     0.172      
H        H      0.042750000000     0.800700000000     0.977450000000     0.172      
H        H      0.070900000000     0.818900000000     0.946250000000     0.172      
H        H      0.277600000000     0.940950000000     0.814950000000     0.172      
H        H      0.292750000000     0.949300000000     0.772550000000     0.172      
H        H      0.320900000000     0.931100000000     0.803750000000     0.172      
H        H      0.027600000000     0.690950000000     0.564950000000     0.172      
H        H      0.042750000000     0.699300000000     0.522550000000     0.172      
H        H      0.070900000000     0.681100000000     0.553750000000     0.172      
H        H      0.185050000000     0.722400000000     0.940950000000     0.172      
H        H      0.227450000000     0.707250000000     0.949300000000     0.172      
H        H      0.196250000000     0.679100000000     0.931100000000     0.172      
H        H      0.435050000000     0.972400000000     0.690950000000     0.172      
H        H      0.477450000000     0.957250000000     0.699300000000     0.172      
H        H      0.446250000000     0.929100000000     0.681100000000     0.172      
H        H      0.314950000000     0.722400000000     0.559050000000     0.172      
H        H      0.272550000000     0.707250000000     0.550700000000     0.172      
H        H      0.303750000000     0.679100000000     0.568900000000     0.172      
H        H      0.064950000000     0.972400000000     0.809050000000     0.172      
H        H      0.022550000000     0.957250000000     0.800700000000     0.172      
H        H      0.053750000000     0.929100000000     0.818900000000     0.172      
H        H      0.185050000000     0.777600000000     0.559050000000     0.172      
H        H      0.227450000000     0.792750000000     0.550700000000     0.172      
H        H      0.196250000000     0.820900000000     0.568900000000     0.172      
H        H      0.435050000000     0.527600000000     0.809050000000     0.172      
H        H      0.477450000000     0.542750000000     0.800700000000     0.172      
H        H      0.446250000000     0.570900000000     0.818900000000     0.172      
H        H      0.314950000000     0.777600000000     0.940950000000     0.172      
H        H      0.272550000000     0.792750000000     0.949300000000     0.172      
H        H      0.303750000000     0.820900000000     0.931100000000     0.172      
H        H      0.064950000000     0.527600000000     0.690950000000     0.172      
H        H      0.022550000000     0.542750000000     0.699300000000     0.172      
H        H      0.053750000000     0.570900000000     0.681100000000     0.172      
H        H      0.185050000000     0.940950000000     0.722400000000     0.172      
H        H      0.227450000000     0.949300000000     0.707250000000     0.172      
H        H      0.196250000000     0.931100000000     0.679100000000     0.172      
H        H      0.435050000000     0.690950000000     0.972400000000     0.172      
H        H      0.477450000000     0.699300000000     0.957250000000     0.172      
H        H      0.446250000000     0.681100000000     0.929100000000     0.172      
H        H      0.314950000000     0.559050000000     0.722400000000     0.172      
H        H      0.272550000000     0.550700000000     0.707250000000     0.172      
H        H      0.303750000000     0.568900000000     0.679100000000     0.172      
H        H      0.064950000000     0.809050000000     0.972400000000     0.172      
H        H      0.022550000000     0.800700000000     0.957250000000     0.172      
H        H      0.053750000000     0.818900000000     0.929100000000     0.172      
H        H      0.185050000000     0.559050000000     0.777600000000     0.172      
H        H      0.227450000000     0.550700000000     0.792750000000     0.172      
H        H      0.196250000000     0.568900000000     0.820900000000     0.172      
H        H      0.435050000000     0.809050000000     0.527600000000     0.172      
H        H      0.477450000000     0.800700000000     0.542750000000     0.172      
H        H      0.446250000000     0.818900000000     0.570900000000     0.172      
H        H      0.314950000000     0.940950000000     0.777600000000     0.172      
H        H      0.272550000000     0.949300000000     0.792750000000     0.172      
H        H      0.303750000000     0.931100000000     0.820900000000     0.172      
H        H      0.064950000000     0.690950000000     0.527600000000     0.172      
H        H      0.022550000000     0.699300000000     0.542750000000     0.172      
H        H      0.053750000000     0.681100000000     0.570900000000     0.172      
H        H      0.440950000000     0.722400000000     0.685050000000     0.172      
H        H      0.449300000000     0.707250000000     0.727450000000     0.172      
H        H      0.431100000000     0.679100000000     0.696250000000     0.172      
H        H      0.190950000000     0.972400000000     0.935050000000     0.172      
H        H      0.199300000000     0.957250000000     0.977450000000     0.172      
H        H      0.181100000000     0.929100000000     0.946250000000     0.172      
H        H      0.059050000000     0.722400000000     0.814950000000     0.172      
H        H      0.050700000000     0.707250000000     0.772550000000     0.172      
H        H      0.068900000000     0.679100000000     0.803750000000     0.172      
H        H      0.309050000000     0.972400000000     0.564950000000     0.172      
H        H      0.300700000000     0.957250000000     0.522550000000     0.172      
H        H      0.318900000000     0.929100000000     0.553750000000     0.172      
H        H      0.059050000000     0.777600000000     0.685050000000     0.172      
H        H      0.050700000000     0.792750000000     0.727450000000     0.172      
H        H      0.068900000000     0.820900000000     0.696250000000     0.172      
H        H      0.309050000000     0.527600000000     0.935050000000     0.172      
H        H      0.300700000000     0.542750000000     0.977450000000     0.172      
H        H      0.318900000000     0.570900000000     0.946250000000     0.172      
H        H      0.440950000000     0.777600000000     0.814950000000     0.172      
H        H      0.449300000000     0.792750000000     0.772550000000     0.172      
H        H      0.431100000000     0.820900000000     0.803750000000     0.172      
H        H      0.190950000000     0.527600000000     0.564950000000     0.172      
H        H      0.199300000000     0.542750000000     0.522550000000     0.172      
H        H      0.181100000000     0.570900000000     0.553750000000     0.172      
H        H      0.222400000000     0.685050000000     0.940950000000     0.172      
H        H      0.207250000000     0.727450000000     0.949300000000     0.172      
H        H      0.179100000000     0.696250000000     0.931100000000     0.172      
H        H      0.472400000000     0.935050000000     0.690950000000     0.172      
H        H      0.457250000000     0.977450000000     0.699300000000     0.172      
H        H      0.429100000000     0.946250000000     0.681100000000     0.172      
H        H      0.222400000000     0.814950000000     0.559050000000     0.172      
H        H      0.207250000000     0.772550000000     0.550700000000     0.172      
H        H      0.179100000000     0.803750000000     0.568900000000     0.172      
H        H      0.472400000000     0.564950000000     0.809050000000     0.172      
H        H      0.457250000000     0.522550000000     0.800700000000     0.172      
H        H      0.429100000000     0.553750000000     0.818900000000     0.172      
H        H      0.277600000000     0.685050000000     0.559050000000     0.172      
H        H      0.292750000000     0.727450000000     0.550700000000     0.172      
H        H      0.320900000000     0.696250000000     0.568900000000     0.172      
H        H      0.027600000000     0.935050000000     0.809050000000     0.172      
H        H      0.042750000000     0.977450000000     0.800700000000     0.172      
H        H      0.070900000000     0.946250000000     0.818900000000     0.172      
H        H      0.277600000000     0.814950000000     0.940950000000     0.172      
H        H      0.292750000000     0.772550000000     0.949300000000     0.172      
H        H      0.320900000000     0.803750000000     0.931100000000     0.172      
H        H      0.027600000000     0.564950000000     0.690950000000     0.172      
H        H      0.042750000000     0.522550000000     0.699300000000     0.172      
H        H      0.070900000000     0.553750000000     0.681100000000     0.172      
H        H      0.940950000000     0.185050000000     0.222400000000     0.172      
H        H      0.949300000000     0.227450000000     0.207250000000     0.172      
H        H      0.931100000000     0.196250000000     0.179100000000     0.172      
H        H      0.690950000000     0.435050000000     0.472400000000     0.172      
H        H      0.699300000000     0.477450000000     0.457250000000     0.172      
H        H      0.681100000000     0.446250000000     0.429100000000     0.172      
H        H      0.559050000000     0.314950000000     0.222400000000     0.172      
H        H      0.550700000000     0.272550000000     0.207250000000     0.172      
H        H      0.568900000000     0.303750000000     0.179100000000     0.172      
H        H      0.809050000000     0.064950000000     0.472400000000     0.172      
H        H      0.800700000000     0.022550000000     0.457250000000     0.172      
H        H      0.818900000000     0.053750000000     0.429100000000     0.172      
H        H      0.559050000000     0.185050000000     0.277600000000     0.172      
H        H      0.550700000000     0.227450000000     0.292750000000     0.172      
H        H      0.568900000000     0.196250000000     0.320900000000     0.172      
H        H      0.809050000000     0.435050000000     0.027600000000     0.172      
H        H      0.800700000000     0.477450000000     0.042750000000     0.172      
H        H      0.818900000000     0.446250000000     0.070900000000     0.172      
H        H      0.940950000000     0.314950000000     0.277600000000     0.172      
H        H      0.949300000000     0.272550000000     0.292750000000     0.172      
H        H      0.931100000000     0.303750000000     0.320900000000     0.172      
H        H      0.690950000000     0.064950000000     0.027600000000     0.172      
H        H      0.699300000000     0.022550000000     0.042750000000     0.172      
H        H      0.681100000000     0.053750000000     0.070900000000     0.172      
H        H      0.722400000000     0.440950000000     0.185050000000     0.172      
H        H      0.707250000000     0.449300000000     0.227450000000     0.172      
H        H      0.679100000000     0.431100000000     0.196250000000     0.172      
H        H      0.972400000000     0.190950000000     0.435050000000     0.172      
H        H      0.957250000000     0.199300000000     0.477450000000     0.172      
H        H      0.929100000000     0.181100000000     0.446250000000     0.172      
H        H      0.722400000000     0.059050000000     0.314950000000     0.172      
H        H      0.707250000000     0.050700000000     0.272550000000     0.172      
H        H      0.679100000000     0.068900000000     0.303750000000     0.172      
H        H      0.972400000000     0.309050000000     0.064950000000     0.172      
H        H      0.957250000000     0.300700000000     0.022550000000     0.172      
H        H      0.929100000000     0.318900000000     0.053750000000     0.172      
H        H      0.777600000000     0.059050000000     0.185050000000     0.172      
H        H      0.792750000000     0.050700000000     0.227450000000     0.172      
H        H      0.820900000000     0.068900000000     0.196250000000     0.172      
H        H      0.527600000000     0.309050000000     0.435050000000     0.172      
H        H      0.542750000000     0.300700000000     0.477450000000     0.172      
H        H      0.570900000000     0.318900000000     0.446250000000     0.172      
H        H      0.777600000000     0.440950000000     0.314950000000     0.172      
H        H      0.792750000000     0.449300000000     0.272550000000     0.172      
H        H      0.820900000000     0.431100000000     0.303750000000     0.172      
H        H      0.527600000000     0.190950000000     0.064950000000     0.172      
H        H      0.542750000000     0.199300000000     0.022550000000     0.172      
H        H      0.570900000000     0.181100000000     0.053750000000     0.172      
H        H      0.685050000000     0.222400000000     0.440950000000     0.172      
H        H      0.727450000000     0.207250000000     0.449300000000     0.172      
H        H      0.696250000000     0.179100000000     0.431100000000     0.172      
H        H      0.935050000000     0.472400000000     0.190950000000     0.172      
H        H      0.977450000000     0.457250000000     0.199300000000     0.172      
H        H      0.946250000000     0.429100000000     0.181100000000     0.172      
H        H      0.814950000000     0.222400000000     0.059050000000     0.172      
H        H      0.772550000000     0.207250000000     0.050700000000     0.172      
H        H      0.803750000000     0.179100000000     0.068900000000     0.172      
H        H      0.564950000000     0.472400000000     0.309050000000     0.172      
H        H      0.522550000000     0.457250000000     0.300700000000     0.172      
H        H      0.553750000000     0.429100000000     0.318900000000     0.172      
H        H      0.685050000000     0.277600000000     0.059050000000     0.172      
H        H      0.727450000000     0.292750000000     0.050700000000     0.172      
H        H      0.696250000000     0.320900000000     0.068900000000     0.172      
H        H      0.935050000000     0.027600000000     0.309050000000     0.172      
H        H      0.977450000000     0.042750000000     0.300700000000     0.172      
H        H      0.946250000000     0.070900000000     0.318900000000     0.172      
H        H      0.814950000000     0.277600000000     0.440950000000     0.172      
H        H      0.772550000000     0.292750000000     0.449300000000     0.172      
H        H      0.803750000000     0.320900000000     0.431100000000     0.172      
H        H      0.564950000000     0.027600000000     0.190950000000     0.172      
H        H      0.522550000000     0.042750000000     0.199300000000     0.172      
H        H      0.553750000000     0.070900000000     0.181100000000     0.172      
H        H      0.685050000000     0.440950000000     0.222400000000     0.172      
H        H      0.727450000000     0.449300000000     0.207250000000     0.172      
H        H      0.696250000000     0.431100000000     0.179100000000     0.172      
H        H      0.935050000000     0.190950000000     0.472400000000     0.172      
H        H      0.977450000000     0.199300000000     0.457250000000     0.172      
H        H      0.946250000000     0.181100000000     0.429100000000     0.172      
H        H      0.814950000000     0.059050000000     0.222400000000     0.172      
H        H      0.772550000000     0.050700000000     0.207250000000     0.172      
H        H      0.803750000000     0.068900000000     0.179100000000     0.172      
H        H      0.564950000000     0.309050000000     0.472400000000     0.172      
H        H      0.522550000000     0.300700000000     0.457250000000     0.172      
H        H      0.553750000000     0.318900000000     0.429100000000     0.172      
H        H      0.685050000000     0.059050000000     0.277600000000     0.172      
H        H      0.727450000000     0.050700000000     0.292750000000     0.172      
H        H      0.696250000000     0.068900000000     0.320900000000     0.172      
H        H      0.935050000000     0.309050000000     0.027600000000     0.172      
H        H      0.977450000000     0.300700000000     0.042750000000     0.172      
H        H      0.946250000000     0.318900000000     0.070900000000     0.172      
H        H      0.814950000000     0.440950000000     0.277600000000     0.172      
H        H      0.772550000000     0.449300000000     0.292750000000     0.172      
H        H      0.803750000000     0.431100000000     0.320900000000     0.172      
H        H      0.564950000000     0.190950000000     0.027600000000     0.172      
H        H      0.522550000000     0.199300000000     0.042750000000     0.172      
H        H      0.553750000000     0.181100000000     0.070900000000     0.172      
H        H      0.940950000000     0.222400000000     0.185050000000     0.172      
H        H      0.949300000000     0.207250000000     0.227450000000     0.172      
H        H      0.931100000000     0.179100000000     0.196250000000     0.172      
H        H      0.690950000000     0.472400000000     0.435050000000     0.172      
H        H      0.699300000000     0.457250000000     0.477450000000     0.172      
H        H      0.681100000000     0.429100000000     0.446250000000     0.172      
H        H      0.559050000000     0.222400000000     0.314950000000     0.172      
H        H      0.550700000000     0.207250000000     0.272550000000     0.172      
H        H      0.568900000000     0.179100000000     0.303750000000     0.172      
H        H      0.809050000000     0.472400000000     0.064950000000     0.172      
H        H      0.800700000000     0.457250000000     0.022550000000     0.172      
H        H      0.818900000000     0.429100000000     0.053750000000     0.172      
H        H      0.559050000000     0.277600000000     0.185050000000     0.172      
H        H      0.550700000000     0.292750000000     0.227450000000     0.172      
H        H      0.568900000000     0.320900000000     0.196250000000     0.172      
H        H      0.809050000000     0.027600000000     0.435050000000     0.172      
H        H      0.800700000000     0.042750000000     0.477450000000     0.172      
H        H      0.818900000000     0.070900000000     0.446250000000     0.172      
H        H      0.940950000000     0.277600000000     0.314950000000     0.172      
H        H      0.949300000000     0.292750000000     0.272550000000     0.172      
H        H      0.931100000000     0.320900000000     0.303750000000     0.172      
H        H      0.690950000000     0.027600000000     0.064950000000     0.172      
H        H      0.699300000000     0.042750000000     0.022550000000     0.172      
H        H      0.681100000000     0.070900000000     0.053750000000     0.172      
H        H      0.722400000000     0.185050000000     0.440950000000     0.172      
H        H      0.707250000000     0.227450000000     0.449300000000     0.172      
H        H      0.679100000000     0.196250000000     0.431100000000     0.172      
H        H      0.972400000000     0.435050000000     0.190950000000     0.172      
H        H      0.957250000000     0.477450000000     0.199300000000     0.172      
H        H      0.929100000000     0.446250000000     0.181100000000     0.172      
H        H      0.722400000000     0.314950000000     0.059050000000     0.172      
H        H      0.707250000000     0.272550000000     0.050700000000     0.172      
H        H      0.679100000000     0.303750000000     0.068900000000     0.172      
H        H      0.972400000000     0.064950000000     0.309050000000     0.172      
H        H      0.957250000000     0.022550000000     0.300700000000     0.172      
H        H      0.929100000000     0.053750000000     0.318900000000     0.172      
H        H      0.777600000000     0.185050000000     0.059050000000     0.172      
H        H      0.792750000000     0.227450000000     0.050700000000     0.172      
H        H      0.820900000000     0.196250000000     0.068900000000     0.172      
H        H      0.527600000000     0.435050000000     0.309050000000     0.172      
H        H      0.542750000000     0.477450000000     0.300700000000     0.172      
H        H      0.570900000000     0.446250000000     0.318900000000     0.172      
H        H      0.777600000000     0.314950000000     0.440950000000     0.172      
H        H      0.792750000000     0.272550000000     0.449300000000     0.172      
H        H      0.820900000000     0.303750000000     0.431100000000     0.172      
H        H      0.527600000000     0.064950000000     0.190950000000     0.172      
H        H      0.542750000000     0.022550000000     0.199300000000     0.172      
H        H      0.570900000000     0.053750000000     0.181100000000     0.172      
H        H      0.940950000000     0.185050000000     0.722400000000     0.172      
H        H      0.949300000000     0.227450000000     0.707250000000     0.172      
H        H      0.931100000000     0.196250000000     0.679100000000     0.172      
H        H      0.690950000000     0.435050000000     0.972400000000     0.172      
H        H      0.699300000000     0.477450000000     0.957250000000     0.172      
H        H      0.681100000000     0.446250000000     0.929100000000     0.172      
H        H      0.559050000000     0.314950000000     0.722400000000     0.172      
H        H      0.550700000000     0.272550000000     0.707250000000     0.172      
H        H      0.568900000000     0.303750000000     0.679100000000     0.172      
H        H      0.809050000000     0.064950000000     0.972400000000     0.172      
H        H      0.800700000000     0.022550000000     0.957250000000     0.172      
H        H      0.818900000000     0.053750000000     0.929100000000     0.172      
H        H      0.559050000000     0.185050000000     0.777600000000     0.172      
H        H      0.550700000000     0.227450000000     0.792750000000     0.172      
H        H      0.568900000000     0.196250000000     0.820900000000     0.172      
H        H      0.809050000000     0.435050000000     0.527600000000     0.172      
H        H      0.800700000000     0.477450000000     0.542750000000     0.172      
H        H      0.818900000000     0.446250000000     0.570900000000     0.172      
H        H      0.940950000000     0.314950000000     0.777600000000     0.172      
H        H      0.949300000000     0.272550000000     0.792750000000     0.172      
H        H      0.931100000000     0.303750000000     0.820900000000     0.172      
H        H      0.690950000000     0.064950000000     0.527600000000     0.172      
H        H      0.699300000000     0.022550000000     0.542750000000     0.172      
H        H      0.681100000000     0.053750000000     0.570900000000     0.172      
H        H      0.722400000000     0.440950000000     0.685050000000     0.172      
H        H      0.707250000000     0.449300000000     0.727450000000     0.172      
H        H      0.679100000000     0.431100000000     0.696250000000     0.172      
H        H      0.972400000000     0.190950000000     0.935050000000     0.172      
H        H      0.957250000000     0.199300000000     0.977450000000     0.172      
H        H      0.929100000000     0.181100000000     0.946250000000     0.172      
H        H      0.722400000000     0.059050000000     0.814950000000     0.172      
H        H      0.707250000000     0.050700000000     0.772550000000     0.172      
H        H      0.679100000000     0.068900000000     0.803750000000     0.172      
H        H      0.972400000000     0.309050000000     0.564950000000     0.172      
H        H      0.957250000000     0.300700000000     0.522550000000     0.172      
H        H      0.929100000000     0.318900000000     0.553750000000     0.172      
H        H      0.777600000000     0.059050000000     0.685050000000     0.172      
H        H      0.792750000000     0.050700000000     0.727450000000     0.172      
H        H      0.820900000000     0.068900000000     0.696250000000     0.172      
H        H      0.527600000000     0.309050000000     0.935050000000     0.172      
H        H      0.542750000000     0.300700000000     0.977450000000     0.172      
H        H      0.570900000000     0.318900000000     0.946250000000     0.172      
H        H      0.777600000000     0.440950000000     0.814950000000     0.172      
H        H      0.792750000000     0.449300000000     0.772550000000     0.172      
H        H      0.820900000000     0.431100000000     0.803750000000     0.172      
H        H      0.527600000000     0.190950000000     0.564950000000     0.172      
H        H      0.542750000000     0.199300000000     0.522550000000     0.172      
H        H      0.570900000000     0.181100000000     0.553750000000     0.172      
H        H      0.685050000000     0.222400000000     0.940950000000     0.172      
H        H      0.727450000000     0.207250000000     0.949300000000     0.172      
H        H      0.696250000000     0.179100000000     0.931100000000     0.172      
H        H      0.935050000000     0.472400000000     0.690950000000     0.172      
H        H      0.977450000000     0.457250000000     0.699300000000     0.172      
H        H      0.946250000000     0.429100000000     0.681100000000     0.172      
H        H      0.814950000000     0.222400000000     0.559050000000     0.172      
H        H      0.772550000000     0.207250000000     0.550700000000     0.172      
H        H      0.803750000000     0.179100000000     0.568900000000     0.172      
H        H      0.564950000000     0.472400000000     0.809050000000     0.172      
H        H      0.522550000000     0.457250000000     0.800700000000     0.172      
H        H      0.553750000000     0.429100000000     0.818900000000     0.172      
H        H      0.685050000000     0.277600000000     0.559050000000     0.172      
H        H      0.727450000000     0.292750000000     0.550700000000     0.172      
H        H      0.696250000000     0.320900000000     0.568900000000     0.172      
H        H      0.935050000000     0.027600000000     0.809050000000     0.172      
H        H      0.977450000000     0.042750000000     0.800700000000     0.172      
H        H      0.946250000000     0.070900000000     0.818900000000     0.172      
H        H      0.814950000000     0.277600000000     0.940950000000     0.172      
H        H      0.772550000000     0.292750000000     0.949300000000     0.172      
H        H      0.803750000000     0.320900000000     0.931100000000     0.172      
H        H      0.564950000000     0.027600000000     0.690950000000     0.172      
H        H      0.522550000000     0.042750000000     0.699300000000     0.172      
H        H      0.553750000000     0.070900000000     0.681100000000     0.172      
H        H      0.685050000000     0.440950000000     0.722400000000     0.172      
H        H      0.727450000000     0.449300000000     0.707250000000     0.172      
H        H      0.696250000000     0.431100000000     0.679100000000     0.172      
H        H      0.935050000000     0.190950000000     0.972400000000     0.172      
H        H      0.977450000000     0.199300000000     0.957250000000     0.172      
H        H      0.946250000000     0.181100000000     0.929100000000     0.172      
H        H      0.814950000000     0.059050000000     0.722400000000     0.172      
H        H      0.772550000000     0.050700000000     0.707250000000     0.172      
H        H      0.803750000000     0.068900000000     0.679100000000     0.172      
H        H      0.564950000000     0.309050000000     0.972400000000     0.172      
H        H      0.522550000000     0.300700000000     0.957250000000     0.172      
H        H      0.553750000000     0.318900000000     0.929100000000     0.172      
H        H      0.685050000000     0.059050000000     0.777600000000     0.172      
H        H      0.727450000000     0.050700000000     0.792750000000     0.172      
H        H      0.696250000000     0.068900000000     0.820900000000     0.172      
H        H      0.935050000000     0.309050000000     0.527600000000     0.172      
H        H      0.977450000000     0.300700000000     0.542750000000     0.172      
H        H      0.946250000000     0.318900000000     0.570900000000     0.172      
H        H      0.814950000000     0.440950000000     0.777600000000     0.172      
H        H      0.772550000000     0.449300000000     0.792750000000     0.172      
H        H      0.803750000000     0.431100000000     0.820900000000     0.172      
H        H      0.564950000000     0.190950000000     0.527600000000     0.172      
H        H      0.522550000000     0.199300000000     0.542750000000     0.172      
H        H      0.553750000000     0.181100000000     0.570900000000     0.172      
H        H      0.940950000000     0.222400000000     0.685050000000     0.172      
H        H      0.949300000000     0.207250000000     0.727450000000     0.172      
H        H      0.931100000000     0.179100000000     0.696250000000     0.172      
H        H      0.690950000000     0.472400000000     0.935050000000     0.172      
H        H      0.699300000000     0.457250000000     0.977450000000     0.172      
H        H      0.681100000000     0.429100000000     0.946250000000     0.172      
H        H      0.559050000000     0.222400000000     0.814950000000     0.172      
H        H      0.550700000000     0.207250000000     0.772550000000     0.172      
H        H      0.568900000000     0.179100000000     0.803750000000     0.172      
H        H      0.809050000000     0.472400000000     0.564950000000     0.172      
H        H      0.800700000000     0.457250000000     0.522550000000     0.172      
H        H      0.818900000000     0.429100000000     0.553750000000     0.172      
H        H      0.559050000000     0.277600000000     0.685050000000     0.172      
H        H      0.550700000000     0.292750000000     0.727450000000     0.172      
H        H      0.568900000000     0.320900000000     0.696250000000     0.172      
H        H      0.809050000000     0.027600000000     0.935050000000     0.172      
H        H      0.800700000000     0.042750000000     0.977450000000     0.172      
H        H      0.818900000000     0.070900000000     0.946250000000     0.172      
H        H      0.940950000000     0.277600000000     0.814950000000     0.172      
H        H      0.949300000000     0.292750000000     0.772550000000     0.172      
H        H      0.931100000000     0.320900000000     0.803750000000     0.172      
H        H      0.690950000000     0.027600000000     0.564950000000     0.172      
H        H      0.699300000000     0.042750000000     0.522550000000     0.172      
H        H      0.681100000000     0.070900000000     0.553750000000     0.172      
H        H      0.722400000000     0.185050000000     0.940950000000     0.172      
H        H      0.707250000000     0.227450000000     0.949300000000     0.172      
H        H      0.679100000000     0.196250000000     0.931100000000     0.172      
H        H      0.972400000000     0.435050000000     0.690950000000     0.172      
H        H      0.957250000000     0.477450000000     0.699300000000     0.172      
H        H      0.929100000000     0.446250000000     0.681100000000     0.172      
H        H      0.722400000000     0.314950000000     0.559050000000     0.172      
H        H      0.707250000000     0.272550000000     0.550700000000     0.172      
H        H      0.679100000000     0.303750000000     0.568900000000     0.172      
H        H      0.972400000000     0.064950000000     0.809050000000     0.172      
H        H      0.957250000000     0.022550000000     0.800700000000     0.172      
H        H      0.929100000000     0.053750000000     0.818900000000     0.172      
H        H      0.777600000000     0.185050000000     0.559050000000     0.172      
H        H      0.792750000000     0.227450000000     0.550700000000     0.172      
H        H      0.820900000000     0.196250000000     0.568900000000     0.172      
H        H      0.527600000000     0.435050000000     0.809050000000     0.172      
H        H      0.542750000000     0.477450000000     0.800700000000     0.172      
H        H      0.570900000000     0.446250000000     0.818900000000     0.172      
H        H      0.777600000000     0.314950000000     0.940950000000     0.172      
H        H      0.792750000000     0.272550000000     0.949300000000     0.172      
H        H      0.820900000000     0.303750000000     0.931100000000     0.172      
H        H      0.527600000000     0.064950000000     0.690950000000     0.172      
H        H      0.542750000000     0.022550000000     0.699300000000     0.172      
H        H      0.570900000000     0.053750000000     0.681100000000     0.172      
H        H      0.940950000000     0.685050000000     0.222400000000     0.172      
H        H      0.949300000000     0.727450000000     0.207250000000     0.172      
H        H      0.931100000000     0.696250000000     0.179100000000     0.172      
H        H      0.690950000000     0.935050000000     0.472400000000     0.172      
H        H      0.699300000000     0.977450000000     0.457250000000     0.172      
H        H      0.681100000000     0.946250000000     0.429100000000     0.172      
H        H      0.559050000000     0.814950000000     0.222400000000     0.172      
H        H      0.550700000000     0.772550000000     0.207250000000     0.172      
H        H      0.568900000000     0.803750000000     0.179100000000     0.172      
H        H      0.809050000000     0.564950000000     0.472400000000     0.172      
H        H      0.800700000000     0.522550000000     0.457250000000     0.172      
H        H      0.818900000000     0.553750000000     0.429100000000     0.172      
H        H      0.559050000000     0.685050000000     0.277600000000     0.172      
H        H      0.550700000000     0.727450000000     0.292750000000     0.172      
H        H      0.568900000000     0.696250000000     0.320900000000     0.172      
H        H      0.809050000000     0.935050000000     0.027600000000     0.172      
H        H      0.800700000000     0.977450000000     0.042750000000     0.172      
H        H      0.818900000000     0.946250000000     0.070900000000     0.172      
H        H      0.940950000000     0.814950000000     0.277600000000     0.172      
H        H      0.949300000000     0.772550000000     0.292750000000     0.172      
H        H      0.931100000000     0.803750000000     0.320900000000     0.172      
H        H      0.690950000000     0.564950000000     0.027600000000     0.172      
H        H      0.699300000000     0.522550000000     0.042750000000     0.172      
H        H      0.681100000000     0.553750000000     0.070900000000     0.172      
H        H      0.722400000000     0.940950000000     0.185050000000     0.172      
H        H      0.707250000000     0.949300000000     0.227450000000     0.172      
H        H      0.679100000000     0.931100000000     0.196250000000     0.172      
H        H      0.972400000000     0.690950000000     0.435050000000     0.172      
H        H      0.957250000000     0.699300000000     0.477450000000     0.172      
H        H      0.929100000000     0.681100000000     0.446250000000     0.172      
H        H      0.722400000000     0.559050000000     0.314950000000     0.172      
H        H      0.707250000000     0.550700000000     0.272550000000     0.172      
H        H      0.679100000000     0.568900000000     0.303750000000     0.172      
H        H      0.972400000000     0.809050000000     0.064950000000     0.172      
H        H      0.957250000000     0.800700000000     0.022550000000     0.172      
H        H      0.929100000000     0.818900000000     0.053750000000     0.172      
H        H      0.777600000000     0.559050000000     0.185050000000     0.172      
H        H      0.792750000000     0.550700000000     0.227450000000     0.172      
H        H      0.820900000000     0.568900000000     0.196250000000     0.172      
H        H      0.527600000000     0.809050000000     0.435050000000     0.172      
H        H      0.542750000000     0.800700000000     0.477450000000     0.172      
H        H      0.570900000000     0.818900000000     0.446250000000     0.172      
H        H      0.777600000000     0.940950000000     0.314950000000     0.172      
H        H      0.792750000000     0.949300000000     0.272550000000     0.172      
H        H      0.820900000000     0.931100000000     0.303750000000     0.172      
H        H      0.527600000000     0.690950000000     0.064950000000     0.172      
H        H      0.542750000000     0.699300000000     0.022550000000     0.172      
H        H      0.570900000000     0.681100000000     0.053750000000     0.172      
H        H      0.685050000000     0.722400000000     0.440950000000     0.172      
H        H      0.727450000000     0.707250000000     0.449300000000     0.172      
H        H      0.696250000000     0.679100000000     0.431100000000     0.172      
H        H      0.935050000000     0.972400000000     0.190950000000     0.172      
H        H      0.977450000000     0.957250000000     0.199300000000     0.172      
H        H      0.946250000000     0.929100000000     0.181100000000     0.172      
H        H      0.814950000000     0.722400000000     0.059050000000     0.172      
H        H      0.772550000000     0.707250000000     0.050700000000     0.172      
H        H      0.803750000000     0.679100000000     0.068900000000     0.172      
H        H      0.564950000000     0.972400000000     0.309050000000     0.172      
H        H      0.522550000000     0.957250000000     0.300700000000     0.172      
H        H      0.553750000000     0.929100000000     0.318900000000     0.172      
H        H      0.685050000000     0.777600000000     0.059050000000     0.172      
H        H      0.727450000000     0.792750000000     0.050700000000     0.172      
H        H      0.696250000000     0.820900000000     0.068900000000     0.172      
H        H      0.935050000000     0.527600000000     0.309050000000     0.172      
H        H      0.977450000000     0.542750000000     0.300700000000     0.172      
H        H      0.946250000000     0.570900000000     0.318900000000     0.172      
H        H      0.814950000000     0.777600000000     0.440950000000     0.172      
H        H      0.772550000000     0.792750000000     0.449300000000     0.172      
H        H      0.803750000000     0.820900000000     0.431100000000     0.172      
H        H      0.564950000000     0.527600000000     0.190950000000     0.172      
H        H      0.522550000000     0.542750000000     0.199300000000     0.172      
H        H      0.553750000000     0.570900000000     0.181100000000     0.172      
H        H      0.685050000000     0.940950000000     0.222400000000     0.172      
H        H      0.727450000000     0.949300000000     0.207250000000     0.172      
H        H      0.696250000000     0.931100000000     0.179100000000     0.172      
H        H      0.935050000000     0.690950000000     0.472400000000     0.172      
H        H      0.977450000000     0.699300000000     0.457250000000     0.172      
H        H      0.946250000000     0.681100000000     0.429100000000     0.172      
H        H      0.814950000000     0.559050000000     0.222400000000     0.172      
H        H      0.772550000000     0.550700000000     0.207250000000     0.172      
H        H      0.803750000000     0.568900000000     0.179100000000     0.172      
H        H      0.564950000000     0.809050000000     0.472400000000     0.172      
H        H      0.522550000000     0.800700000000     0.457250000000     0.172      
H        H      0.553750000000     0.818900000000     0.429100000000     0.172      
H        H      0.685050000000     0.559050000000     0.277600000000     0.172      
H        H      0.727450000000     0.550700000000     0.292750000000     0.172      
H        H      0.696250000000     0.568900000000     0.320900000000     0.172      
H        H      0.935050000000     0.809050000000     0.027600000000     0.172      
H        H      0.977450000000     0.800700000000     0.042750000000     0.172      
H        H      0.946250000000     0.818900000000     0.070900000000     0.172      
H        H      0.814950000000     0.940950000000     0.277600000000     0.172      
H        H      0.772550000000     0.949300000000     0.292750000000     0.172      
H        H      0.803750000000     0.931100000000     0.320900000000     0.172      
H        H      0.564950000000     0.690950000000     0.027600000000     0.172      
H        H      0.522550000000     0.699300000000     0.042750000000     0.172      
H        H      0.553750000000     0.681100000000     0.070900000000     0.172      
H        H      0.940950000000     0.722400000000     0.185050000000     0.172      
H        H      0.949300000000     0.707250000000     0.227450000000     0.172      
H        H      0.931100000000     0.679100000000     0.196250000000     0.172      
H        H      0.690950000000     0.972400000000     0.435050000000     0.172      
H        H      0.699300000000     0.957250000000     0.477450000000     0.172      
H        H      0.681100000000     0.929100000000     0.446250000000     0.172      
H        H      0.559050000000     0.722400000000     0.314950000000     0.172      
H        H      0.550700000000     0.707250000000     0.272550000000     0.172      
H        H      0.568900000000     0.679100000000     0.303750000000     0.172      
H        H      0.809050000000     0.972400000000     0.064950000000     0.172      
H        H      0.800700000000     0.957250000000     0.022550000000     0.172      
H        H      0.818900000000     0.929100000000     0.053750000000     0.172      
H        H      0.559050000000     0.777600000000     0.185050000000     0.172      
H        H      0.550700000000     0.792750000000     0.227450000000     0.172      
H        H      0.568900000000     0.820900000000     0.196250000000     0.172      
H        H      0.809050000000     0.527600000000     0.435050000000     0.172      
H        H      0.800700000000     0.542750000000     0.477450000000     0.172      
H        H      0.818900000000     0.570900000000     0.446250000000     0.172      
H        H      0.940950000000     0.777600000000     0.314950000000     0.172      
H        H      0.949300000000     0.792750000000     0.272550000000     0.172      
H        H      0.931100000000     0.820900000000     0.303750000000     0.172      
H        H      0.690950000000     0.527600000000     0.064950000000     0.172      
H        H      0.699300000000     0.542750000000     0.022550000000     0.172      
H        H      0.681100000000     0.570900000000     0.053750000000     0.172      
H        H      0.722400000000     0.685050000000     0.440950000000     0.172      
H        H      0.707250000000     0.727450000000     0.449300000000     0.172      
H        H      0.679100000000     0.696250000000     0.431100000000     0.172      
H        H      0.972400000000     0.935050000000     0.190950000000     0.172      
H        H      0.957250000000     0.977450000000     0.199300000000     0.172      
H        H      0.929100000000     0.946250000000     0.181100000000     0.172      
H        H      0.722400000000     0.814950000000     0.059050000000     0.172      
H        H      0.707250000000     0.772550000000     0.050700000000     0.172      
H        H      0.679100000000     0.803750000000     0.068900000000     0.172      
H        H      0.972400000000     0.564950000000     0.309050000000     0.172      
H        H      0.957250000000     0.522550000000     0.300700000000     0.172      
H        H      0.929100000000     0.553750000000     0.318900000000     0.172      
H        H      0.777600000000     0.685050000000     0.059050000000     0.172      
H        H      0.792750000000     0.727450000000     0.050700000000     0.172      
H        H      0.820900000000     0.696250000000     0.068900000000     0.172      
H        H      0.527600000000     0.935050000000     0.309050000000     0.172      
H        H      0.542750000000     0.977450000000     0.300700000000     0.172      
H        H      0.570900000000     0.946250000000     0.318900000000     0.172      
H        H      0.777600000000     0.814950000000     0.440950000000     0.172      
H        H      0.792750000000     0.772550000000     0.449300000000     0.172      
H        H      0.820900000000     0.803750000000     0.431100000000     0.172      
H        H      0.527600000000     0.564950000000     0.190950000000     0.172      
H        H      0.542750000000     0.522550000000     0.199300000000     0.172      
H        H      0.570900000000     0.553750000000     0.181100000000     0.172      
H        H      0.940950000000     0.685050000000     0.722400000000     0.172      
H        H      0.949300000000     0.727450000000     0.707250000000     0.172      
H        H      0.931100000000     0.696250000000     0.679100000000     0.172      
H        H      0.690950000000     0.935050000000     0.972400000000     0.172      
H        H      0.699300000000     0.977450000000     0.957250000000     0.172      
H        H      0.681100000000     0.946250000000     0.929100000000     0.172      
H        H      0.559050000000     0.814950000000     0.722400000000     0.172      
H        H      0.550700000000     0.772550000000     0.707250000000     0.172      
H        H      0.568900000000     0.803750000000     0.679100000000     0.172      
H        H      0.809050000000     0.564950000000     0.972400000000     0.172      
H        H      0.800700000000     0.522550000000     0.957250000000     0.172      
H        H      0.818900000000     0.553750000000     0.929100000000     0.172      
H        H      0.559050000000     0.685050000000     0.777600000000     0.172      
H        H      0.550700000000     0.727450000000     0.792750000000     0.172      
H        H      0.568900000000     0.696250000000     0.820900000000     0.172      
H        H      0.809050000000     0.935050000000     0.527600000000     0.172      
H        H      0.800700000000     0.977450000000     0.542750000000     0.172      
H        H      0.818900000000     0.946250000000     0.570900000000     0.172      
H        H      0.940950000000     0.814950000000     0.777600000000     0.172      
H        H      0.949300000000     0.772550000000     0.792750000000     0.172      
H        H      0.931100000000     0.803750000000     0.820900000000     0.172      
H        H      0.690950000000     0.564950000000     0.527600000000     0.172      
H        H      0.699300000000     0.522550000000     0.542750000000     0.172      
H        H      0.681100000000     0.553750000000     0.570900000000     0.172      
H        H      0.722400000000     0.940950000000     0.685050000000     0.172      
H        H      0.707250000000     0.949300000000     0.727450000000     0.172      
H        H      0.679100000000     0.931100000000     0.696250000000     0.172      
H        H      0.972400000000     0.690950000000     0.935050000000     0.172      
H        H      0.957250000000     0.699300000000     0.977450000000     0.172      
H        H      0.929100000000     0.681100000000     0.946250000000     0.172      
H        H      0.722400000000     0.559050000000     0.814950000000     0.172      
H        H      0.707250000000     0.550700000000     0.772550000000     0.172      
H        H      0.679100000000     0.568900000000     0.803750000000     0.172      
H        H      0.972400000000     0.809050000000     0.564950000000     0.172      
H        H      0.957250000000     0.800700000000     0.522550000000     0.172      
H        H      0.929100000000     0.818900000000     0.553750000000     0.172      
H        H      0.777600000000     0.559050000000     0.685050000000     0.172      
H        H      0.792750000000     0.550700000000     0.727450000000     0.172      
H        H      0.820900000000     0.568900000000     0.696250000000     0.172      
H        H      0.527600000000     0.809050000000     0.935050000000     0.172      
H        H      0.542750000000     0.800700000000     0.977450000000     0.172      
H        H      0.570900000000     0.818900000000     0.946250000000     0.172      
H        H      0.777600000000     0.940950000000     0.814950000000     0.172      
H        H      0.792750000000     0.949300000000     0.772550000000     0.172      
H        H      0.820900000000     0.931100000000     0.803750000000     0.172      
H        H      0.527600000000     0.690950000000     0.564950000000     0.172      
H        H      0.542750000000     0.699300000000     0.522550000000     0.172      
H        H      0.570900000000     0.681100000000     0.553750000000     0.172      
H        H      0.685050000000     0.722400000000     0.940950000000     0.172      
H        H      0.727450000000     0.707250000000     0.949300000000     0.172      
H        H      0.696250000000     0.679100000000     0.931100000000     0.172      
H        H      0.935050000000     0.972400000000     0.690950000000     0.172      
H        H      0.977450000000     0.957250000000     0.699300000000     0.172      
H        H      0.946250000000     0.929100000000     0.681100000000     0.172      
H        H      0.814950000000     0.722400000000     0.559050000000     0.172      
H        H      0.772550000000     0.707250000000     0.550700000000     0.172      
H        H      0.803750000000     0.679100000000     0.568900000000     0.172      
H        H      0.564950000000     0.972400000000     0.809050000000     0.172      
H        H      0.522550000000     0.957250000000     0.800700000000     0.172      
H        H      0.553750000000     0.929100000000     0.818900000000     0.172      
H        H      0.685050000000     0.777600000000     0.559050000000     0.172      
H        H      0.727450000000     0.792750000000     0.550700000000     0.172      
H        H      0.696250000000     0.820900000000     0.568900000000     0.172      
H        H      0.935050000000     0.527600000000     0.809050000000     0.172      
H        H      0.977450000000     0.542750000000     0.800700000000     0.172      
H        H      0.946250000000     0.570900000000     0.818900000000     0.172      
H        H      0.814950000000     0.777600000000     0.940950000000     0.172      
H        H      0.772550000000     0.792750000000     0.949300000000     0.172      
H        H      0.803750000000     0.820900000000     0.931100000000     0.172      
H        H      0.564950000000     0.527600000000     0.690950000000     0.172      
H        H      0.522550000000     0.542750000000     0.699300000000     0.172      
H        H      0.553750000000     0.570900000000     0.681100000000     0.172      
H        H      0.685050000000     0.940950000000     0.722400000000     0.172      
H        H      0.727450000000     0.949300000000     0.707250000000     0.172      
H        H      0.696250000000     0.931100000000     0.679100000000     0.172      
H        H      0.935050000000     0.690950000000     0.972400000000     0.172      
H        H      0.977450000000     0.699300000000     0.957250000000     0.172      
H        H      0.946250000000     0.681100000000     0.929100000000     0.172      
H        H      0.814950000000     0.559050000000     0.722400000000     0.172      
H        H      0.772550000000     0.550700000000     0.707250000000     0.172      
H        H      0.803750000000     0.568900000000     0.679100000000     0.172      
H        H      0.564950000000     0.809050000000     0.972400000000     0.172      
H        H      0.522550000000     0.800700000000     0.957250000000     0.172      
H        H      0.553750000000     0.818900000000     0.929100000000     0.172      
H        H      0.685050000000     0.559050000000     0.777600000000     0.172      
H        H      0.727450000000     0.550700000000     0.792750000000     0.172      
H        H      0.696250000000     0.568900000000     0.820900000000     0.172      
H        H      0.935050000000     0.809050000000     0.527600000000     0.172      
H        H      0.977450000000     0.800700000000     0.542750000000     0.172      
H        H      0.946250000000     0.818900000000     0.570900000000     0.172      
H        H      0.814950000000     0.940950000000     0.777600000000     0.172      
H        H      0.772550000000     0.949300000000     0.792750000000     0.172      
H        H      0.803750000000     0.931100000000     0.820900000000     0.172      
H        H      0.564950000000     0.690950000000     0.527600000000     0.172      
H        H      0.522550000000     0.699300000000     0.542750000000     0.172      
H        H      0.553750000000     0.681100000000     0.570900000000     0.172      
H        H      0.940950000000     0.722400000000     0.685050000000     0.172      
H        H      0.949300000000     0.707250000000     0.727450000000     0.172      
H        H      0.931100000000     0.679100000000     0.696250000000     0.172      
H        H      0.690950000000     0.972400000000     0.935050000000     0.172      
H        H      0.699300000000     0.957250000000     0.977450000000     0.172      
H        H      0.681100000000     0.929100000000     0.946250000000     0.172      
H        H      0.559050000000     0.722400000000     0.814950000000     0.172      
H        H      0.550700000000     0.707250000000     0.772550000000     0.172      
H        H      0.568900000000     0.679100000000     0.803750000000     0.172      
H        H      0.809050000000     0.972400000000     0.564950000000     0.172      
H        H      0.800700000000     0.957250000000     0.522550000000     0.172      
H        H      0.818900000000     0.929100000000     0.553750000000     0.172      
H        H      0.559050000000     0.777600000000     0.685050000000     0.172      
H        H      0.550700000000     0.792750000000     0.727450000000     0.172      
H        H      0.568900000000     0.820900000000     0.696250000000     0.172      
H        H      0.809050000000     0.527600000000     0.935050000000     0.172      
H        H      0.800700000000     0.542750000000     0.977450000000     0.172      
H        H      0.818900000000     0.570900000000     0.946250000000     0.172      
H        H      0.940950000000     0.777600000000     0.814950000000     0.172      
H        H      0.949300000000     0.792750000000     0.772550000000     0.172      
H        H      0.931100000000     0.820900000000     0.803750000000     0.172      
H        H      0.690950000000     0.527600000000     0.564950000000     0.172      
H        H      0.699300000000     0.542750000000     0.522550000000     0.172      
H        H      0.681100000000     0.570900000000     0.553750000000     0.172      
H        H      0.722400000000     0.685050000000     0.940950000000     0.172      
H        H      0.707250000000     0.727450000000     0.949300000000     0.172      
H        H      0.679100000000     0.696250000000     0.931100000000     0.172      
H        H      0.972400000000     0.935050000000     0.690950000000     0.172      
H        H      0.957250000000     0.977450000000     0.699300000000     0.172      
H        H      0.929100000000     0.946250000000     0.681100000000     0.172      
H        H      0.722400000000     0.814950000000     0.559050000000     0.172      
H        H      0.707250000000     0.772550000000     0.550700000000     0.172      
H        H      0.679100000000     0.803750000000     0.568900000000     0.172      
H        H      0.972400000000     0.564950000000     0.809050000000     0.172      
H        H      0.957250000000     0.522550000000     0.800700000000     0.172      
H        H      0.929100000000     0.553750000000     0.818900000000     0.172      
H        H      0.777600000000     0.685050000000     0.559050000000     0.172      
H        H      0.792750000000     0.727450000000     0.550700000000     0.172      
H        H      0.820900000000     0.696250000000     0.568900000000     0.172      
H        H      0.527600000000     0.935050000000     0.809050000000     0.172      
H        H      0.542750000000     0.977450000000     0.800700000000     0.172      
H        H      0.570900000000     0.946250000000     0.818900000000     0.172      
H        H      0.777600000000     0.814950000000     0.940950000000     0.172      
H        H      0.792750000000     0.772550000000     0.949300000000     0.172      
H        H      0.820900000000     0.803750000000     0.931100000000     0.172      
H        H      0.527600000000     0.564950000000     0.690950000000     0.172      
H        H      0.542750000000     0.522550000000     0.699300000000     0.172      
H        H      0.570900000000     0.553750000000     0.681100000000     0.172      
N        N      0.007700000000     0.203550000000     0.158800000000     0.368      
N        N      0.041000000000     0.182650000000     0.156500000000     0.368      
N        N      0.257700000000     0.453550000000     0.408800000000     0.368      
N        N      0.291000000000     0.432650000000     0.406500000000     0.368      
N        N      0.492300000000     0.296450000000     0.158800000000     0.368      
N        N      0.459000000000     0.317350000000     0.156500000000     0.368      
N        N      0.242300000000     0.046450000000     0.408800000000     0.368      
N        N      0.209000000000     0.067350000000     0.406500000000     0.368      
N        N      0.492300000000     0.203550000000     0.341200000000     0.368      
N        N      0.459000000000     0.182650000000     0.343500000000     0.368      
N        N      0.242300000000     0.453550000000     0.091200000000     0.368      
N        N      0.209000000000     0.432650000000     0.093500000000     0.368      
N        N      0.007700000000     0.296450000000     0.341200000000     0.368      
N        N      0.041000000000     0.317350000000     0.343500000000     0.368      
N        N      0.257700000000     0.046450000000     0.091200000000     0.368      
N        N      0.291000000000     0.067350000000     0.093500000000     0.368      
N        N      0.158800000000     0.007700000000     0.203550000000     0.368      
N        N      0.156500000000     0.041000000000     0.182650000000     0.368      
N        N      0.408800000000     0.257700000000     0.453550000000     0.368      
N        N      0.406500000000     0.291000000000     0.432650000000     0.368      
N        N      0.158800000000     0.492300000000     0.296450000000     0.368      
N        N      0.156500000000     0.459000000000     0.317350000000     0.368      
N        N      0.408800000000     0.242300000000     0.046450000000     0.368      
N        N      0.406500000000     0.209000000000     0.067350000000     0.368      
N        N      0.341200000000     0.492300000000     0.203550000000     0.368      
N        N      0.343500000000     0.459000000000     0.182650000000     0.368      
N        N      0.091200000000     0.242300000000     0.453550000000     0.368      
N        N      0.093500000000     0.209000000000     0.432650000000     0.368      
N        N      0.341200000000     0.007700000000     0.296450000000     0.368      
N        N      0.343500000000     0.041000000000     0.317350000000     0.368      
N        N      0.091200000000     0.257700000000     0.046450000000     0.368      
N        N      0.093500000000     0.291000000000     0.067350000000     0.368      
N        N      0.203550000000     0.158800000000     0.007700000000     0.368      
N        N      0.182650000000     0.156500000000     0.041000000000     0.368      
N        N      0.453550000000     0.408800000000     0.257700000000     0.368      
N        N      0.432650000000     0.406500000000     0.291000000000     0.368      
N        N      0.296450000000     0.158800000000     0.492300000000     0.368      
N        N      0.317350000000     0.156500000000     0.459000000000     0.368      
N        N      0.046450000000     0.408800000000     0.242300000000     0.368      
N        N      0.067350000000     0.406500000000     0.209000000000     0.368      
N        N      0.203550000000     0.341200000000     0.492300000000     0.368      
N        N      0.182650000000     0.343500000000     0.459000000000     0.368      
N        N      0.453550000000     0.091200000000     0.242300000000     0.368      
N        N      0.432650000000     0.093500000000     0.209000000000     0.368      
N        N      0.296450000000     0.341200000000     0.007700000000     0.368      
N        N      0.317350000000     0.343500000000     0.041000000000     0.368      
N        N      0.046450000000     0.091200000000     0.257700000000     0.368      
N        N      0.067350000000     0.093500000000     0.291000000000     0.368      
N        N      0.203550000000     0.007700000000     0.158800000000     0.368      
N        N      0.182650000000     0.041000000000     0.156500000000     0.368      
N        N      0.453550000000     0.257700000000     0.408800000000     0.368      
N        N      0.432650000000     0.291000000000     0.406500000000     0.368      
N        N      0.296450000000     0.492300000000     0.158800000000     0.368      
N        N      0.317350000000     0.459000000000     0.156500000000     0.368      
N        N      0.046450000000     0.242300000000     0.408800000000     0.368      
N        N      0.067350000000     0.209000000000     0.406500000000     0.368      
N        N      0.203550000000     0.492300000000     0.341200000000     0.368      
N        N      0.182650000000     0.459000000000     0.343500000000     0.368      
N        N      0.453550000000     0.242300000000     0.091200000000     0.368      
N        N      0.432650000000     0.209000000000     0.093500000000     0.368      
N        N      0.296450000000     0.007700000000     0.341200000000     0.368      
N        N      0.317350000000     0.041000000000     0.343500000000     0.368      
N        N      0.046450000000     0.257700000000     0.091200000000     0.368      
N        N      0.067350000000     0.291000000000     0.093500000000     0.368      
N        N      0.007700000000     0.158800000000     0.203550000000     0.368      
N        N      0.041000000000     0.156500000000     0.182650000000     0.368      
N        N      0.257700000000     0.408800000000     0.453550000000     0.368      
N        N      0.291000000000     0.406500000000     0.432650000000     0.368      
N        N      0.492300000000     0.158800000000     0.296450000000     0.368      
N        N      0.459000000000     0.156500000000     0.317350000000     0.368      
N        N      0.242300000000     0.408800000000     0.046450000000     0.368      
N        N      0.209000000000     0.406500000000     0.067350000000     0.368      
N        N      0.492300000000     0.341200000000     0.203550000000     0.368      
N        N      0.459000000000     0.343500000000     0.182650000000     0.368      
N        N      0.242300000000     0.091200000000     0.453550000000     0.368      
N        N      0.209000000000     0.093500000000     0.432650000000     0.368      
N        N      0.007700000000     0.341200000000     0.296450000000     0.368      
N        N      0.041000000000     0.343500000000     0.317350000000     0.368      
N        N      0.257700000000     0.091200000000     0.046450000000     0.368      
N        N      0.291000000000     0.093500000000     0.067350000000     0.368      
N        N      0.158800000000     0.203550000000     0.007700000000     0.368      
N        N      0.156500000000     0.182650000000     0.041000000000     0.368      
N        N      0.408800000000     0.453550000000     0.257700000000     0.368      
N        N      0.406500000000     0.432650000000     0.291000000000     0.368      
N        N      0.158800000000     0.296450000000     0.492300000000     0.368      
N        N      0.156500000000     0.317350000000     0.459000000000     0.368      
N        N      0.408800000000     0.046450000000     0.242300000000     0.368      
N        N      0.406500000000     0.067350000000     0.209000000000     0.368      
N        N      0.341200000000     0.203550000000     0.492300000000     0.368      
N        N      0.343500000000     0.182650000000     0.459000000000     0.368      
N        N      0.091200000000     0.453550000000     0.242300000000     0.368      
N        N      0.093500000000     0.432650000000     0.209000000000     0.368      
N        N      0.341200000000     0.296450000000     0.007700000000     0.368      
N        N      0.343500000000     0.317350000000     0.041000000000     0.368      
N        N      0.091200000000     0.046450000000     0.257700000000     0.368      
N        N      0.093500000000     0.067350000000     0.291000000000     0.368      
N        N      0.007700000000     0.203550000000     0.658800000000     0.368      
N        N      0.041000000000     0.182650000000     0.656500000000     0.368      
N        N      0.257700000000     0.453550000000     0.908800000000     0.368      
N        N      0.291000000000     0.432650000000     0.906500000000     0.368      
N        N      0.492300000000     0.296450000000     0.658800000000     0.368      
N        N      0.459000000000     0.317350000000     0.656500000000     0.368      
N        N      0.242300000000     0.046450000000     0.908800000000     0.368      
N        N      0.209000000000     0.067350000000     0.906500000000     0.368      
N        N      0.492300000000     0.203550000000     0.841200000000     0.368      
N        N      0.459000000000     0.182650000000     0.843500000000     0.368      
N        N      0.242300000000     0.453550000000     0.591200000000     0.368      
N        N      0.209000000000     0.432650000000     0.593500000000     0.368      
N        N      0.007700000000     0.296450000000     0.841200000000     0.368      
N        N      0.041000000000     0.317350000000     0.843500000000     0.368      
N        N      0.257700000000     0.046450000000     0.591200000000     0.368      
N        N      0.291000000000     0.067350000000     0.593500000000     0.368      
N        N      0.158800000000     0.007700000000     0.703550000000     0.368      
N        N      0.156500000000     0.041000000000     0.682650000000     0.368      
N        N      0.408800000000     0.257700000000     0.953550000000     0.368      
N        N      0.406500000000     0.291000000000     0.932650000000     0.368      
N        N      0.158800000000     0.492300000000     0.796450000000     0.368      
N        N      0.156500000000     0.459000000000     0.817350000000     0.368      
N        N      0.408800000000     0.242300000000     0.546450000000     0.368      
N        N      0.406500000000     0.209000000000     0.567350000000     0.368      
N        N      0.341200000000     0.492300000000     0.703550000000     0.368      
N        N      0.343500000000     0.459000000000     0.682650000000     0.368      
N        N      0.091200000000     0.242300000000     0.953550000000     0.368      
N        N      0.093500000000     0.209000000000     0.932650000000     0.368      
N        N      0.341200000000     0.007700000000     0.796450000000     0.368      
N        N      0.343500000000     0.041000000000     0.817350000000     0.368      
N        N      0.091200000000     0.257700000000     0.546450000000     0.368      
N        N      0.093500000000     0.291000000000     0.567350000000     0.368      
N        N      0.203550000000     0.158800000000     0.507700000000     0.368      
N        N      0.182650000000     0.156500000000     0.541000000000     0.368      
N        N      0.453550000000     0.408800000000     0.757700000000     0.368      
N        N      0.432650000000     0.406500000000     0.791000000000     0.368      
N        N      0.296450000000     0.158800000000     0.992300000000     0.368      
N        N      0.317350000000     0.156500000000     0.959000000000     0.368      
N        N      0.046450000000     0.408800000000     0.742300000000     0.368      
N        N      0.067350000000     0.406500000000     0.709000000000     0.368      
N        N      0.203550000000     0.341200000000     0.992300000000     0.368      
N        N      0.182650000000     0.343500000000     0.959000000000     0.368      
N        N      0.453550000000     0.091200000000     0.742300000000     0.368      
N        N      0.432650000000     0.093500000000     0.709000000000     0.368      
N        N      0.296450000000     0.341200000000     0.507700000000     0.368      
N        N      0.317350000000     0.343500000000     0.541000000000     0.368      
N        N      0.046450000000     0.091200000000     0.757700000000     0.368      
N        N      0.067350000000     0.093500000000     0.791000000000     0.368      
N        N      0.203550000000     0.007700000000     0.658800000000     0.368      
N        N      0.182650000000     0.041000000000     0.656500000000     0.368      
N        N      0.453550000000     0.257700000000     0.908800000000     0.368      
N        N      0.432650000000     0.291000000000     0.906500000000     0.368      
N        N      0.296450000000     0.492300000000     0.658800000000     0.368      
N        N      0.317350000000     0.459000000000     0.656500000000     0.368      
N        N      0.046450000000     0.242300000000     0.908800000000     0.368      
N        N      0.067350000000     0.209000000000     0.906500000000     0.368      
N        N      0.203550000000     0.492300000000     0.841200000000     0.368      
N        N      0.182650000000     0.459000000000     0.843500000000     0.368      
N        N      0.453550000000     0.242300000000     0.591200000000     0.368      
N        N      0.432650000000     0.209000000000     0.593500000000     0.368      
N        N      0.296450000000     0.007700000000     0.841200000000     0.368      
N        N      0.317350000000     0.041000000000     0.843500000000     0.368      
N        N      0.046450000000     0.257700000000     0.591200000000     0.368      
N        N      0.067350000000     0.291000000000     0.593500000000     0.368      
N        N      0.007700000000     0.158800000000     0.703550000000     0.368      
N        N      0.041000000000     0.156500000000     0.682650000000     0.368      
N        N      0.257700000000     0.408800000000     0.953550000000     0.368      
N        N      0.291000000000     0.406500000000     0.932650000000     0.368      
N        N      0.492300000000     0.158800000000     0.796450000000     0.368      
N        N      0.459000000000     0.156500000000     0.817350000000     0.368      
N        N      0.242300000000     0.408800000000     0.546450000000     0.368      
N        N      0.209000000000     0.406500000000     0.567350000000     0.368      
N        N      0.492300000000     0.341200000000     0.703550000000     0.368      
N        N      0.459000000000     0.343500000000     0.682650000000     0.368      
N        N      0.242300000000     0.091200000000     0.953550000000     0.368      
N        N      0.209000000000     0.093500000000     0.932650000000     0.368      
N        N      0.007700000000     0.341200000000     0.796450000000     0.368      
N        N      0.041000000000     0.343500000000     0.817350000000     0.368      
N        N      0.257700000000     0.091200000000     0.546450000000     0.368      
N        N      0.291000000000     0.093500000000     0.567350000000     0.368      
N        N      0.158800000000     0.203550000000     0.507700000000     0.368      
N        N      0.156500000000     0.182650000000     0.541000000000     0.368      
N        N      0.408800000000     0.453550000000     0.757700000000     0.368      
N        N      0.406500000000     0.432650000000     0.791000000000     0.368      
N        N      0.158800000000     0.296450000000     0.992300000000     0.368      
N        N      0.156500000000     0.317350000000     0.959000000000     0.368      
N        N      0.408800000000     0.046450000000     0.742300000000     0.368      
N        N      0.406500000000     0.067350000000     0.709000000000     0.368      
N        N      0.341200000000     0.203550000000     0.992300000000     0.368      
N        N      0.343500000000     0.182650000000     0.959000000000     0.368      
N        N      0.091200000000     0.453550000000     0.742300000000     0.368      
N        N      0.093500000000     0.432650000000     0.709000000000     0.368      
N        N      0.341200000000     0.296450000000     0.507700000000     0.368      
N        N      0.343500000000     0.317350000000     0.541000000000     0.368      
N        N      0.091200000000     0.046450000000     0.757700000000     0.368      
N        N      0.093500000000     0.067350000000     0.791000000000     0.368      
N        N      0.007700000000     0.703550000000     0.158800000000     0.368      
N        N      0.041000000000     0.682650000000     0.156500000000     0.368      
N        N      0.257700000000     0.953550000000     0.408800000000     0.368      
N        N      0.291000000000     0.932650000000     0.406500000000     0.368      
N        N      0.492300000000     0.796450000000     0.158800000000     0.368      
N        N      0.459000000000     0.817350000000     0.156500000000     0.368      
N        N      0.242300000000     0.546450000000     0.408800000000     0.368      
N        N      0.209000000000     0.567350000000     0.406500000000     0.368      
N        N      0.492300000000     0.703550000000     0.341200000000     0.368      
N        N      0.459000000000     0.682650000000     0.343500000000     0.368      
N        N      0.242300000000     0.953550000000     0.091200000000     0.368      
N        N      0.209000000000     0.932650000000     0.093500000000     0.368      
N        N      0.007700000000     0.796450000000     0.341200000000     0.368      
N        N      0.041000000000     0.817350000000     0.343500000000     0.368      
N        N      0.257700000000     0.546450000000     0.091200000000     0.368      
N        N      0.291000000000     0.567350000000     0.093500000000     0.368      
N        N      0.158800000000     0.507700000000     0.203550000000     0.368      
N        N      0.156500000000     0.541000000000     0.182650000000     0.368      
N        N      0.408800000000     0.757700000000     0.453550000000     0.368      
N        N      0.406500000000     0.791000000000     0.432650000000     0.368      
N        N      0.158800000000     0.992300000000     0.296450000000     0.368      
N        N      0.156500000000     0.959000000000     0.317350000000     0.368      
N        N      0.408800000000     0.742300000000     0.046450000000     0.368      
N        N      0.406500000000     0.709000000000     0.067350000000     0.368      
N        N      0.341200000000     0.992300000000     0.203550000000     0.368      
N        N      0.343500000000     0.959000000000     0.182650000000     0.368      
N        N      0.091200000000     0.742300000000     0.453550000000     0.368      
N        N      0.093500000000     0.709000000000     0.432650000000     0.368      
N        N      0.341200000000     0.507700000000     0.296450000000     0.368      
N        N      0.343500000000     0.541000000000     0.317350000000     0.368      
N        N      0.091200000000     0.757700000000     0.046450000000     0.368      
N        N      0.093500000000     0.791000000000     0.067350000000     0.368      
N        N      0.203550000000     0.658800000000     0.007700000000     0.368      
N        N      0.182650000000     0.656500000000     0.041000000000     0.368      
N        N      0.453550000000     0.908800000000     0.257700000000     0.368      
N        N      0.432650000000     0.906500000000     0.291000000000     0.368      
N        N      0.296450000000     0.658800000000     0.492300000000     0.368      
N        N      0.317350000000     0.656500000000     0.459000000000     0.368      
N        N      0.046450000000     0.908800000000     0.242300000000     0.368      
N        N      0.067350000000     0.906500000000     0.209000000000     0.368      
N        N      0.203550000000     0.841200000000     0.492300000000     0.368      
N        N      0.182650000000     0.843500000000     0.459000000000     0.368      
N        N      0.453550000000     0.591200000000     0.242300000000     0.368      
N        N      0.432650000000     0.593500000000     0.209000000000     0.368      
N        N      0.296450000000     0.841200000000     0.007700000000     0.368      
N        N      0.317350000000     0.843500000000     0.041000000000     0.368      
N        N      0.046450000000     0.591200000000     0.257700000000     0.368      
N        N      0.067350000000     0.593500000000     0.291000000000     0.368      
N        N      0.203550000000     0.507700000000     0.158800000000     0.368      
N        N      0.182650000000     0.541000000000     0.156500000000     0.368      
N        N      0.453550000000     0.757700000000     0.408800000000     0.368      
N        N      0.432650000000     0.791000000000     0.406500000000     0.368      
N        N      0.296450000000     0.992300000000     0.158800000000     0.368      
N        N      0.317350000000     0.959000000000     0.156500000000     0.368      
N        N      0.046450000000     0.742300000000     0.408800000000     0.368      
N        N      0.067350000000     0.709000000000     0.406500000000     0.368      
N        N      0.203550000000     0.992300000000     0.341200000000     0.368      
N        N      0.182650000000     0.959000000000     0.343500000000     0.368      
N        N      0.453550000000     0.742300000000     0.091200000000     0.368      
N        N      0.432650000000     0.709000000000     0.093500000000     0.368      
N        N      0.296450000000     0.507700000000     0.341200000000     0.368      
N        N      0.317350000000     0.541000000000     0.343500000000     0.368      
N        N      0.046450000000     0.757700000000     0.091200000000     0.368      
N        N      0.067350000000     0.791000000000     0.093500000000     0.368      
N        N      0.007700000000     0.658800000000     0.203550000000     0.368      
N        N      0.041000000000     0.656500000000     0.182650000000     0.368      
N        N      0.257700000000     0.908800000000     0.453550000000     0.368      
N        N      0.291000000000     0.906500000000     0.432650000000     0.368      
N        N      0.492300000000     0.658800000000     0.296450000000     0.368      
N        N      0.459000000000     0.656500000000     0.317350000000     0.368      
N        N      0.242300000000     0.908800000000     0.046450000000     0.368      
N        N      0.209000000000     0.906500000000     0.067350000000     0.368      
N        N      0.492300000000     0.841200000000     0.203550000000     0.368      
N        N      0.459000000000     0.843500000000     0.182650000000     0.368      
N        N      0.242300000000     0.591200000000     0.453550000000     0.368      
N        N      0.209000000000     0.593500000000     0.432650000000     0.368      
N        N      0.007700000000     0.841200000000     0.296450000000     0.368      
N        N      0.041000000000     0.843500000000     0.317350000000     0.368      
N        N      0.257700000000     0.591200000000     0.046450000000     0.368      
N        N      0.291000000000     0.593500000000     0.067350000000     0.368      
N        N      0.158800000000     0.703550000000     0.007700000000     0.368      
N        N      0.156500000000     0.682650000000     0.041000000000     0.368      
N        N      0.408800000000     0.953550000000     0.257700000000     0.368      
N        N      0.406500000000     0.932650000000     0.291000000000     0.368      
N        N      0.158800000000     0.796450000000     0.492300000000     0.368      
N        N      0.156500000000     0.817350000000     0.459000000000     0.368      
N        N      0.408800000000     0.546450000000     0.242300000000     0.368      
N        N      0.406500000000     0.567350000000     0.209000000000     0.368      
N        N      0.341200000000     0.703550000000     0.492300000000     0.368      
N        N      0.343500000000     0.682650000000     0.459000000000     0.368      
N        N      0.091200000000     0.953550000000     0.242300000000     0.368      
N        N      0.093500000000     0.932650000000     0.209000000000     0.368      
N        N      0.341200000000     0.796450000000     0.007700000000     0.368      
N        N      0.343500000000     0.817350000000     0.041000000000     0.368      
N        N      0.091200000000     0.546450000000     0.257700000000     0.368      
N        N      0.093500000000     0.567350000000     0.291000000000     0.368      
N        N      0.007700000000     0.703550000000     0.658800000000     0.368      
N        N      0.041000000000     0.682650000000     0.656500000000     0.368      
N        N      0.257700000000     0.953550000000     0.908800000000     0.368      
N        N      0.291000000000     0.932650000000     0.906500000000     0.368      
N        N      0.492300000000     0.796450000000     0.658800000000     0.368      
N        N      0.459000000000     0.817350000000     0.656500000000     0.368      
N        N      0.242300000000     0.546450000000     0.908800000000     0.368      
N        N      0.209000000000     0.567350000000     0.906500000000     0.368      
N        N      0.492300000000     0.703550000000     0.841200000000     0.368      
N        N      0.459000000000     0.682650000000     0.843500000000     0.368      
N        N      0.242300000000     0.953550000000     0.591200000000     0.368      
N        N      0.209000000000     0.932650000000     0.593500000000     0.368      
N        N      0.007700000000     0.796450000000     0.841200000000     0.368      
N        N      0.041000000000     0.817350000000     0.843500000000     0.368      
N        N      0.257700000000     0.546450000000     0.591200000000     0.368      
N        N      0.291000000000     0.567350000000     0.593500000000     0.368      
N        N      0.158800000000     0.507700000000     0.703550000000     0.368      
N        N      0.156500000000     0.541000000000     0.682650000000     0.368      
N        N      0.408800000000     0.757700000000     0.953550000000     0.368      
N        N      0.406500000000     0.791000000000     0.932650000000     0.368      
N        N      0.158800000000     0.992300000000     0.796450000000     0.368      
N        N      0.156500000000     0.959000000000     0.817350000000     0.368      
N        N      0.408800000000     0.742300000000     0.546450000000     0.368      
N        N      0.406500000000     0.709000000000     0.567350000000     0.368      
N        N      0.341200000000     0.992300000000     0.703550000000     0.368      
N        N      0.343500000000     0.959000000000     0.682650000000     0.368      
N        N      0.091200000000     0.742300000000     0.953550000000     0.368      
N        N      0.093500000000     0.709000000000     0.932650000000     0.368      
N        N      0.341200000000     0.507700000000     0.796450000000     0.368      
N        N      0.343500000000     0.541000000000     0.817350000000     0.368      
N        N      0.091200000000     0.757700000000     0.546450000000     0.368      
N        N      0.093500000000     0.791000000000     0.567350000000     0.368      
N        N      0.203550000000     0.658800000000     0.507700000000     0.368      
N        N      0.182650000000     0.656500000000     0.541000000000     0.368      
N        N      0.453550000000     0.908800000000     0.757700000000     0.368      
N        N      0.432650000000     0.906500000000     0.791000000000     0.368      
N        N      0.296450000000     0.658800000000     0.992300000000     0.368      
N        N      0.317350000000     0.656500000000     0.959000000000     0.368      
N        N      0.046450000000     0.908800000000     0.742300000000     0.368      
N        N      0.067350000000     0.906500000000     0.709000000000     0.368      
N        N      0.203550000000     0.841200000000     0.992300000000     0.368      
N        N      0.182650000000     0.843500000000     0.959000000000     0.368      
N        N      0.453550000000     0.591200000000     0.742300000000     0.368      
N        N      0.432650000000     0.593500000000     0.709000000000     0.368      
N        N      0.296450000000     0.841200000000     0.507700000000     0.368      
N        N      0.317350000000     0.843500000000     0.541000000000     0.368      
N        N      0.046450000000     0.591200000000     0.757700000000     0.368      
N        N      0.067350000000     0.593500000000     0.791000000000     0.368      
N        N      0.203550000000     0.507700000000     0.658800000000     0.368      
N        N      0.182650000000     0.541000000000     0.656500000000     0.368      
N        N      0.453550000000     0.757700000000     0.908800000000     0.368      
N        N      0.432650000000     0.791000000000     0.906500000000     0.368      
N        N      0.296450000000     0.992300000000     0.658800000000     0.368      
N        N      0.317350000000     0.959000000000     0.656500000000     0.368      
N        N      0.046450000000     0.742300000000     0.908800000000     0.368      
N        N      0.067350000000     0.709000000000     0.906500000000     0.368      
N        N      0.203550000000     0.992300000000     0.841200000000     0.368      
N        N      0.182650000000     0.959000000000     0.843500000000     0.368      
N        N      0.453550000000     0.742300000000     0.591200000000     0.368      
N        N      0.432650000000     0.709000000000     0.593500000000     0.368      
N        N      0.296450000000     0.507700000000     0.841200000000     0.368      
N        N      0.317350000000     0.541000000000     0.843500000000     0.368      
N        N      0.046450000000     0.757700000000     0.591200000000     0.368      
N        N      0.067350000000     0.791000000000     0.593500000000     0.368      
N        N      0.007700000000     0.658800000000     0.703550000000     0.368      
N        N      0.041000000000     0.656500000000     0.682650000000     0.368      
N        N      0.257700000000     0.908800000000     0.953550000000     0.368      
N        N      0.291000000000     0.906500000000     0.932650000000     0.368      
N        N      0.492300000000     0.658800000000     0.796450000000     0.368      
N        N      0.459000000000     0.656500000000     0.817350000000     0.368      
N        N      0.242300000000     0.908800000000     0.546450000000     0.368      
N        N      0.209000000000     0.906500000000     0.567350000000     0.368      
N        N      0.492300000000     0.841200000000     0.703550000000     0.368      
N        N      0.459000000000     0.843500000000     0.682650000000     0.368      
N        N      0.242300000000     0.591200000000     0.953550000000     0.368      
N        N      0.209000000000     0.593500000000     0.932650000000     0.368      
N        N      0.007700000000     0.841200000000     0.796450000000     0.368      
N        N      0.041000000000     0.843500000000     0.817350000000     0.368      
N        N      0.257700000000     0.591200000000     0.546450000000     0.368      
N        N      0.291000000000     0.593500000000     0.567350000000     0.368      
N        N      0.158800000000     0.703550000000     0.507700000000     0.368      
N        N      0.156500000000     0.682650000000     0.541000000000     0.368      
N        N      0.408800000000     0.953550000000     0.757700000000     0.368      
N        N      0.406500000000     0.932650000000     0.791000000000     0.368      
N        N      0.158800000000     0.796450000000     0.992300000000     0.368      
N        N      0.156500000000     0.817350000000     0.959000000000     0.368      
N        N      0.408800000000     0.546450000000     0.742300000000     0.368      
N        N      0.406500000000     0.567350000000     0.709000000000     0.368      
N        N      0.341200000000     0.703550000000     0.992300000000     0.368      
N        N      0.343500000000     0.682650000000     0.959000000000     0.368      
N        N      0.091200000000     0.953550000000     0.742300000000     0.368      
N        N      0.093500000000     0.932650000000     0.709000000000     0.368      
N        N      0.341200000000     0.796450000000     0.507700000000     0.368      
N        N      0.343500000000     0.817350000000     0.541000000000     0.368      
N        N      0.091200000000     0.546450000000     0.757700000000     0.368      
N        N      0.093500000000     0.567350000000     0.791000000000     0.368      
N        N      0.507700000000     0.203550000000     0.158800000000     0.368      
N        N      0.541000000000     0.182650000000     0.156500000000     0.368      
N        N      0.757700000000     0.453550000000     0.408800000000     0.368      
N        N      0.791000000000     0.432650000000     0.406500000000     0.368      
N        N      0.992300000000     0.296450000000     0.158800000000     0.368      
N        N      0.959000000000     0.317350000000     0.156500000000     0.368      
N        N      0.742300000000     0.046450000000     0.408800000000     0.368      
N        N      0.709000000000     0.067350000000     0.406500000000     0.368      
N        N      0.992300000000     0.203550000000     0.341200000000     0.368      
N        N      0.959000000000     0.182650000000     0.343500000000     0.368      
N        N      0.742300000000     0.453550000000     0.091200000000     0.368      
N        N      0.709000000000     0.432650000000     0.093500000000     0.368      
N        N      0.507700000000     0.296450000000     0.341200000000     0.368      
N        N      0.541000000000     0.317350000000     0.343500000000     0.368      
N        N      0.757700000000     0.046450000000     0.091200000000     0.368      
N        N      0.791000000000     0.067350000000     0.093500000000     0.368      
N        N      0.658800000000     0.007700000000     0.203550000000     0.368      
N        N      0.656500000000     0.041000000000     0.182650000000     0.368      
N        N      0.908800000000     0.257700000000     0.453550000000     0.368      
N        N      0.906500000000     0.291000000000     0.432650000000     0.368      
N        N      0.658800000000     0.492300000000     0.296450000000     0.368      
N        N      0.656500000000     0.459000000000     0.317350000000     0.368      
N        N      0.908800000000     0.242300000000     0.046450000000     0.368      
N        N      0.906500000000     0.209000000000     0.067350000000     0.368      
N        N      0.841200000000     0.492300000000     0.203550000000     0.368      
N        N      0.843500000000     0.459000000000     0.182650000000     0.368      
N        N      0.591200000000     0.242300000000     0.453550000000     0.368      
N        N      0.593500000000     0.209000000000     0.432650000000     0.368      
N        N      0.841200000000     0.007700000000     0.296450000000     0.368      
N        N      0.843500000000     0.041000000000     0.317350000000     0.368      
N        N      0.591200000000     0.257700000000     0.046450000000     0.368      
N        N      0.593500000000     0.291000000000     0.067350000000     0.368      
N        N      0.703550000000     0.158800000000     0.007700000000     0.368      
N        N      0.682650000000     0.156500000000     0.041000000000     0.368      
N        N      0.953550000000     0.408800000000     0.257700000000     0.368      
N        N      0.932650000000     0.406500000000     0.291000000000     0.368      
N        N      0.796450000000     0.158800000000     0.492300000000     0.368      
N        N      0.817350000000     0.156500000000     0.459000000000     0.368      
N        N      0.546450000000     0.408800000000     0.242300000000     0.368      
N        N      0.567350000000     0.406500000000     0.209000000000     0.368      
N        N      0.703550000000     0.341200000000     0.492300000000     0.368      
N        N      0.682650000000     0.343500000000     0.459000000000     0.368      
N        N      0.953550000000     0.091200000000     0.242300000000     0.368      
N        N      0.932650000000     0.093500000000     0.209000000000     0.368      
N        N      0.796450000000     0.341200000000     0.007700000000     0.368      
N        N      0.817350000000     0.343500000000     0.041000000000     0.368      
N        N      0.546450000000     0.091200000000     0.257700000000     0.368      
N        N      0.567350000000     0.093500000000     0.291000000000     0.368      
N        N      0.703550000000     0.007700000000     0.158800000000     0.368      
N        N      0.682650000000     0.041000000000     0.156500000000     0.368      
N        N      0.953550000000     0.257700000000     0.408800000000     0.368      
N        N      0.932650000000     0.291000000000     0.406500000000     0.368      
N        N      0.796450000000     0.492300000000     0.158800000000     0.368      
N        N      0.817350000000     0.459000000000     0.156500000000     0.368      
N        N      0.546450000000     0.242300000000     0.408800000000     0.368      
N        N      0.567350000000     0.209000000000     0.406500000000     0.368      
N        N      0.703550000000     0.492300000000     0.341200000000     0.368      
N        N      0.682650000000     0.459000000000     0.343500000000     0.368      
N        N      0.953550000000     0.242300000000     0.091200000000     0.368      
N        N      0.932650000000     0.209000000000     0.093500000000     0.368      
N        N      0.796450000000     0.007700000000     0.341200000000     0.368      
N        N      0.817350000000     0.041000000000     0.343500000000     0.368      
N        N      0.546450000000     0.257700000000     0.091200000000     0.368      
N        N      0.567350000000     0.291000000000     0.093500000000     0.368      
N        N      0.507700000000     0.158800000000     0.203550000000     0.368      
N        N      0.541000000000     0.156500000000     0.182650000000     0.368      
N        N      0.757700000000     0.408800000000     0.453550000000     0.368      
N        N      0.791000000000     0.406500000000     0.432650000000     0.368      
N        N      0.992300000000     0.158800000000     0.296450000000     0.368      
N        N      0.959000000000     0.156500000000     0.317350000000     0.368      
N        N      0.742300000000     0.408800000000     0.046450000000     0.368      
N        N      0.709000000000     0.406500000000     0.067350000000     0.368      
N        N      0.992300000000     0.341200000000     0.203550000000     0.368      
N        N      0.959000000000     0.343500000000     0.182650000000     0.368      
N        N      0.742300000000     0.091200000000     0.453550000000     0.368      
N        N      0.709000000000     0.093500000000     0.432650000000     0.368      
N        N      0.507700000000     0.341200000000     0.296450000000     0.368      
N        N      0.541000000000     0.343500000000     0.317350000000     0.368      
N        N      0.757700000000     0.091200000000     0.046450000000     0.368      
N        N      0.791000000000     0.093500000000     0.067350000000     0.368      
N        N      0.658800000000     0.203550000000     0.007700000000     0.368      
N        N      0.656500000000     0.182650000000     0.041000000000     0.368      
N        N      0.908800000000     0.453550000000     0.257700000000     0.368      
N        N      0.906500000000     0.432650000000     0.291000000000     0.368      
N        N      0.658800000000     0.296450000000     0.492300000000     0.368      
N        N      0.656500000000     0.317350000000     0.459000000000     0.368      
N        N      0.908800000000     0.046450000000     0.242300000000     0.368      
N        N      0.906500000000     0.067350000000     0.209000000000     0.368      
N        N      0.841200000000     0.203550000000     0.492300000000     0.368      
N        N      0.843500000000     0.182650000000     0.459000000000     0.368      
N        N      0.591200000000     0.453550000000     0.242300000000     0.368      
N        N      0.593500000000     0.432650000000     0.209000000000     0.368      
N        N      0.841200000000     0.296450000000     0.007700000000     0.368      
N        N      0.843500000000     0.317350000000     0.041000000000     0.368      
N        N      0.591200000000     0.046450000000     0.257700000000     0.368      
N        N      0.593500000000     0.067350000000     0.291000000000     0.368      
N        N      0.507700000000     0.203550000000     0.658800000000     0.368      
N        N      0.541000000000     0.182650000000     0.656500000000     0.368      
N        N      0.757700000000     0.453550000000     0.908800000000     0.368      
N        N      0.791000000000     0.432650000000     0.906500000000     0.368      
N        N      0.992300000000     0.296450000000     0.658800000000     0.368      
N        N      0.959000000000     0.317350000000     0.656500000000     0.368      
N        N      0.742300000000     0.046450000000     0.908800000000     0.368      
N        N      0.709000000000     0.067350000000     0.906500000000     0.368      
N        N      0.992300000000     0.203550000000     0.841200000000     0.368      
N        N      0.959000000000     0.182650000000     0.843500000000     0.368      
N        N      0.742300000000     0.453550000000     0.591200000000     0.368      
N        N      0.709000000000     0.432650000000     0.593500000000     0.368      
N        N      0.507700000000     0.296450000000     0.841200000000     0.368      
N        N      0.541000000000     0.317350000000     0.843500000000     0.368      
N        N      0.757700000000     0.046450000000     0.591200000000     0.368      
N        N      0.791000000000     0.067350000000     0.593500000000     0.368      
N        N      0.658800000000     0.007700000000     0.703550000000     0.368      
N        N      0.656500000000     0.041000000000     0.682650000000     0.368      
N        N      0.908800000000     0.257700000000     0.953550000000     0.368      
N        N      0.906500000000     0.291000000000     0.932650000000     0.368      
N        N      0.658800000000     0.492300000000     0.796450000000     0.368      
N        N      0.656500000000     0.459000000000     0.817350000000     0.368      
N        N      0.908800000000     0.242300000000     0.546450000000     0.368      
N        N      0.906500000000     0.209000000000     0.567350000000     0.368      
N        N      0.841200000000     0.492300000000     0.703550000000     0.368      
N        N      0.843500000000     0.459000000000     0.682650000000     0.368      
N        N      0.591200000000     0.242300000000     0.953550000000     0.368      
N        N      0.593500000000     0.209000000000     0.932650000000     0.368      
N        N      0.841200000000     0.007700000000     0.796450000000     0.368      
N        N      0.843500000000     0.041000000000     0.817350000000     0.368      
N        N      0.591200000000     0.257700000000     0.546450000000     0.368      
N        N      0.593500000000     0.291000000000     0.567350000000     0.368      
N        N      0.703550000000     0.158800000000     0.507700000000     0.368      
N        N      0.682650000000     0.156500000000     0.541000000000     0.368      
N        N      0.953550000000     0.408800000000     0.757700000000     0.368      
N        N      0.932650000000     0.406500000000     0.791000000000     0.368      
N        N      0.796450000000     0.158800000000     0.992300000000     0.368      
N        N      0.817350000000     0.156500000000     0.959000000000     0.368      
N        N      0.546450000000     0.408800000000     0.742300000000     0.368      
N        N      0.567350000000     0.406500000000     0.709000000000     0.368      
N        N      0.703550000000     0.341200000000     0.992300000000     0.368      
N        N      0.682650000000     0.343500000000     0.959000000000     0.368      
N        N      0.953550000000     0.091200000000     0.742300000000     0.368      
N        N      0.932650000000     0.093500000000     0.709000000000     0.368      
N        N      0.796450000000     0.341200000000     0.507700000000     0.368      
N        N      0.817350000000     0.343500000000     0.541000000000     0.368      
N        N      0.546450000000     0.091200000000     0.757700000000     0.368      
N        N      0.567350000000     0.093500000000     0.791000000000     0.368      
N        N      0.703550000000     0.007700000000     0.658800000000     0.368      
N        N      0.682650000000     0.041000000000     0.656500000000     0.368      
N        N      0.953550000000     0.257700000000     0.908800000000     0.368      
N        N      0.932650000000     0.291000000000     0.906500000000     0.368      
N        N      0.796450000000     0.492300000000     0.658800000000     0.368      
N        N      0.817350000000     0.459000000000     0.656500000000     0.368      
N        N      0.546450000000     0.242300000000     0.908800000000     0.368      
N        N      0.567350000000     0.209000000000     0.906500000000     0.368      
N        N      0.703550000000     0.492300000000     0.841200000000     0.368      
N        N      0.682650000000     0.459000000000     0.843500000000     0.368      
N        N      0.953550000000     0.242300000000     0.591200000000     0.368      
N        N      0.932650000000     0.209000000000     0.593500000000     0.368      
N        N      0.796450000000     0.007700000000     0.841200000000     0.368      
N        N      0.817350000000     0.041000000000     0.843500000000     0.368      
N        N      0.546450000000     0.257700000000     0.591200000000     0.368      
N        N      0.567350000000     0.291000000000     0.593500000000     0.368      
N        N      0.507700000000     0.158800000000     0.703550000000     0.368      
N        N      0.541000000000     0.156500000000     0.682650000000     0.368      
N        N      0.757700000000     0.408800000000     0.953550000000     0.368      
N        N      0.791000000000     0.406500000000     0.932650000000     0.368      
N        N      0.992300000000     0.158800000000     0.796450000000     0.368      
N        N      0.959000000000     0.156500000000     0.817350000000     0.368      
N        N      0.742300000000     0.408800000000     0.546450000000     0.368      
N        N      0.709000000000     0.406500000000     0.567350000000     0.368      
N        N      0.992300000000     0.341200000000     0.703550000000     0.368      
N        N      0.959000000000     0.343500000000     0.682650000000     0.368      
N        N      0.742300000000     0.091200000000     0.953550000000     0.368      
N        N      0.709000000000     0.093500000000     0.932650000000     0.368      
N        N      0.507700000000     0.341200000000     0.796450000000     0.368      
N        N      0.541000000000     0.343500000000     0.817350000000     0.368      
N        N      0.757700000000     0.091200000000     0.546450000000     0.368      
N        N      0.791000000000     0.093500000000     0.567350000000     0.368      
N        N      0.658800000000     0.203550000000     0.507700000000     0.368      
N        N      0.656500000000     0.182650000000     0.541000000000     0.368      
N        N      0.908800000000     0.453550000000     0.757700000000     0.368      
N        N      0.906500000000     0.432650000000     0.791000000000     0.368      
N        N      0.658800000000     0.296450000000     0.992300000000     0.368      
N        N      0.656500000000     0.317350000000     0.959000000000     0.368      
N        N      0.908800000000     0.046450000000     0.742300000000     0.368      
N        N      0.906500000000     0.067350000000     0.709000000000     0.368      
N        N      0.841200000000     0.203550000000     0.992300000000     0.368      
N        N      0.843500000000     0.182650000000     0.959000000000     0.368      
N        N      0.591200000000     0.453550000000     0.742300000000     0.368      
N        N      0.593500000000     0.432650000000     0.709000000000     0.368      
N        N      0.841200000000     0.296450000000     0.507700000000     0.368      
N        N      0.843500000000     0.317350000000     0.541000000000     0.368      
N        N      0.591200000000     0.046450000000     0.757700000000     0.368      
N        N      0.593500000000     0.067350000000     0.791000000000     0.368      
N        N      0.507700000000     0.703550000000     0.158800000000     0.368      
N        N      0.541000000000     0.682650000000     0.156500000000     0.368      
N        N      0.757700000000     0.953550000000     0.408800000000     0.368      
N        N      0.791000000000     0.932650000000     0.406500000000     0.368      
N        N      0.992300000000     0.796450000000     0.158800000000     0.368      
N        N      0.959000000000     0.817350000000     0.156500000000     0.368      
N        N      0.742300000000     0.546450000000     0.408800000000     0.368      
N        N      0.709000000000     0.567350000000     0.406500000000     0.368      
N        N      0.992300000000     0.703550000000     0.341200000000     0.368      
N        N      0.959000000000     0.682650000000     0.343500000000     0.368      
N        N      0.742300000000     0.953550000000     0.091200000000     0.368      
N        N      0.709000000000     0.932650000000     0.093500000000     0.368      
N        N      0.507700000000     0.796450000000     0.341200000000     0.368      
N        N      0.541000000000     0.817350000000     0.343500000000     0.368      
N        N      0.757700000000     0.546450000000     0.091200000000     0.368      
N        N      0.791000000000     0.567350000000     0.093500000000     0.368      
N        N      0.658800000000     0.507700000000     0.203550000000     0.368      
N        N      0.656500000000     0.541000000000     0.182650000000     0.368      
N        N      0.908800000000     0.757700000000     0.453550000000     0.368      
N        N      0.906500000000     0.791000000000     0.432650000000     0.368      
N        N      0.658800000000     0.992300000000     0.296450000000     0.368      
N        N      0.656500000000     0.959000000000     0.317350000000     0.368      
N        N      0.908800000000     0.742300000000     0.046450000000     0.368      
N        N      0.906500000000     0.709000000000     0.067350000000     0.368      
N        N      0.841200000000     0.992300000000     0.203550000000     0.368      
N        N      0.843500000000     0.959000000000     0.182650000000     0.368      
N        N      0.591200000000     0.742300000000     0.453550000000     0.368      
N        N      0.593500000000     0.709000000000     0.432650000000     0.368      
N        N      0.841200000000     0.507700000000     0.296450000000     0.368      
N        N      0.843500000000     0.541000000000     0.317350000000     0.368      
N        N      0.591200000000     0.757700000000     0.046450000000     0.368      
N        N      0.593500000000     0.791000000000     0.067350000000     0.368      
N        N      0.703550000000     0.658800000000     0.007700000000     0.368      
N        N      0.682650000000     0.656500000000     0.041000000000     0.368      
N        N      0.953550000000     0.908800000000     0.257700000000     0.368      
N        N      0.932650000000     0.906500000000     0.291000000000     0.368      
N        N      0.796450000000     0.658800000000     0.492300000000     0.368      
N        N      0.817350000000     0.656500000000     0.459000000000     0.368      
N        N      0.546450000000     0.908800000000     0.242300000000     0.368      
N        N      0.567350000000     0.906500000000     0.209000000000     0.368      
N        N      0.703550000000     0.841200000000     0.492300000000     0.368      
N        N      0.682650000000     0.843500000000     0.459000000000     0.368      
N        N      0.953550000000     0.591200000000     0.242300000000     0.368      
N        N      0.932650000000     0.593500000000     0.209000000000     0.368      
N        N      0.796450000000     0.841200000000     0.007700000000     0.368      
N        N      0.817350000000     0.843500000000     0.041000000000     0.368      
N        N      0.546450000000     0.591200000000     0.257700000000     0.368      
N        N      0.567350000000     0.593500000000     0.291000000000     0.368      
N        N      0.703550000000     0.507700000000     0.158800000000     0.368      
N        N      0.682650000000     0.541000000000     0.156500000000     0.368      
N        N      0.953550000000     0.757700000000     0.408800000000     0.368      
N        N      0.932650000000     0.791000000000     0.406500000000     0.368      
N        N      0.796450000000     0.992300000000     0.158800000000     0.368      
N        N      0.817350000000     0.959000000000     0.156500000000     0.368      
N        N      0.546450000000     0.742300000000     0.408800000000     0.368      
N        N      0.567350000000     0.709000000000     0.406500000000     0.368      
N        N      0.703550000000     0.992300000000     0.341200000000     0.368      
N        N      0.682650000000     0.959000000000     0.343500000000     0.368      
N        N      0.953550000000     0.742300000000     0.091200000000     0.368      
N        N      0.932650000000     0.709000000000     0.093500000000     0.368      
N        N      0.796450000000     0.507700000000     0.341200000000     0.368      
N        N      0.817350000000     0.541000000000     0.343500000000     0.368      
N        N      0.546450000000     0.757700000000     0.091200000000     0.368      
N        N      0.567350000000     0.791000000000     0.093500000000     0.368      
N        N      0.507700000000     0.658800000000     0.203550000000     0.368      
N        N      0.541000000000     0.656500000000     0.182650000000     0.368      
N        N      0.757700000000     0.908800000000     0.453550000000     0.368      
N        N      0.791000000000     0.906500000000     0.432650000000     0.368      
N        N      0.992300000000     0.658800000000     0.296450000000     0.368      
N        N      0.959000000000     0.656500000000     0.317350000000     0.368      
N        N      0.742300000000     0.908800000000     0.046450000000     0.368      
N        N      0.709000000000     0.906500000000     0.067350000000     0.368      
N        N      0.992300000000     0.841200000000     0.203550000000     0.368      
N        N      0.959000000000     0.843500000000     0.182650000000     0.368      
N        N      0.742300000000     0.591200000000     0.453550000000     0.368      
N        N      0.709000000000     0.593500000000     0.432650000000     0.368      
N        N      0.507700000000     0.841200000000     0.296450000000     0.368      
N        N      0.541000000000     0.843500000000     0.317350000000     0.368      
N        N      0.757700000000     0.591200000000     0.046450000000     0.368      
N        N      0.791000000000     0.593500000000     0.067350000000     0.368      
N        N      0.658800000000     0.703550000000     0.007700000000     0.368      
N        N      0.656500000000     0.682650000000     0.041000000000     0.368      
N        N      0.908800000000     0.953550000000     0.257700000000     0.368      
N        N      0.906500000000     0.932650000000     0.291000000000     0.368      
N        N      0.658800000000     0.796450000000     0.492300000000     0.368      
N        N      0.656500000000     0.817350000000     0.459000000000     0.368      
N        N      0.908800000000     0.546450000000     0.242300000000     0.368      
N        N      0.906500000000     0.567350000000     0.209000000000     0.368      
N        N      0.841200000000     0.703550000000     0.492300000000     0.368      
N        N      0.843500000000     0.682650000000     0.459000000000     0.368      
N        N      0.591200000000     0.953550000000     0.242300000000     0.368      
N        N      0.593500000000     0.932650000000     0.209000000000     0.368      
N        N      0.841200000000     0.796450000000     0.007700000000     0.368      
N        N      0.843500000000     0.817350000000     0.041000000000     0.368      
N        N      0.591200000000     0.546450000000     0.257700000000     0.368      
N        N      0.593500000000     0.567350000000     0.291000000000     0.368      
N        N      0.507700000000     0.703550000000     0.658800000000     0.368      
N        N      0.541000000000     0.682650000000     0.656500000000     0.368      
N        N      0.757700000000     0.953550000000     0.908800000000     0.368      
N        N      0.791000000000     0.932650000000     0.906500000000     0.368      
N        N      0.992300000000     0.796450000000     0.658800000000     0.368      
N        N      0.959000000000     0.817350000000     0.656500000000     0.368      
N        N      0.742300000000     0.546450000000     0.908800000000     0.368      
N        N      0.709000000000     0.567350000000     0.906500000000     0.368      
N        N      0.992300000000     0.703550000000     0.841200000000     0.368      
N        N      0.959000000000     0.682650000000     0.843500000000     0.368      
N        N      0.742300000000     0.953550000000     0.591200000000     0.368      
N        N      0.709000000000     0.932650000000     0.593500000000     0.368      
N        N      0.507700000000     0.796450000000     0.841200000000     0.368      
N        N      0.541000000000     0.817350000000     0.843500000000     0.368      
N        N      0.757700000000     0.546450000000     0.591200000000     0.368      
N        N      0.791000000000     0.567350000000     0.593500000000     0.368      
N        N      0.658800000000     0.507700000000     0.703550000000     0.368      
N        N      0.656500000000     0.541000000000     0.682650000000     0.368      
N        N      0.908800000000     0.757700000000     0.953550000000     0.368      
N        N      0.906500000000     0.791000000000     0.932650000000     0.368      
N        N      0.658800000000     0.992300000000     0.796450000000     0.368      
N        N      0.656500000000     0.959000000000     0.817350000000     0.368      
N        N      0.908800000000     0.742300000000     0.546450000000     0.368      
N        N      0.906500000000     0.709000000000     0.567350000000     0.368      
N        N      0.841200000000     0.992300000000     0.703550000000     0.368      
N        N      0.843500000000     0.959000000000     0.682650000000     0.368      
N        N      0.591200000000     0.742300000000     0.953550000000     0.368      
N        N      0.593500000000     0.709000000000     0.932650000000     0.368      
N        N      0.841200000000     0.507700000000     0.796450000000     0.368      
N        N      0.843500000000     0.541000000000     0.817350000000     0.368      
N        N      0.591200000000     0.757700000000     0.546450000000     0.368      
N        N      0.593500000000     0.791000000000     0.567350000000     0.368      
N        N      0.703550000000     0.658800000000     0.507700000000     0.368      
N        N      0.682650000000     0.656500000000     0.541000000000     0.368      
N        N      0.953550000000     0.908800000000     0.757700000000     0.368      
N        N      0.932650000000     0.906500000000     0.791000000000     0.368      
N        N      0.796450000000     0.658800000000     0.992300000000     0.368      
N        N      0.817350000000     0.656500000000     0.959000000000     0.368      
N        N      0.546450000000     0.908800000000     0.742300000000     0.368      
N        N      0.567350000000     0.906500000000     0.709000000000     0.368      
N        N      0.703550000000     0.841200000000     0.992300000000     0.368      
N        N      0.682650000000     0.843500000000     0.959000000000     0.368      
N        N      0.953550000000     0.591200000000     0.742300000000     0.368      
N        N      0.932650000000     0.593500000000     0.709000000000     0.368      
N        N      0.796450000000     0.841200000000     0.507700000000     0.368      
N        N      0.817350000000     0.843500000000     0.541000000000     0.368      
N        N      0.546450000000     0.591200000000     0.757700000000     0.368      
N        N      0.567350000000     0.593500000000     0.791000000000     0.368      
N        N      0.703550000000     0.507700000000     0.658800000000     0.368      
N        N      0.682650000000     0.541000000000     0.656500000000     0.368      
N        N      0.953550000000     0.757700000000     0.908800000000     0.368      
N        N      0.932650000000     0.791000000000     0.906500000000     0.368      
N        N      0.796450000000     0.992300000000     0.658800000000     0.368      
N        N      0.817350000000     0.959000000000     0.656500000000     0.368      
N        N      0.546450000000     0.742300000000     0.908800000000     0.368      
N        N      0.567350000000     0.709000000000     0.906500000000     0.368      
N        N      0.703550000000     0.992300000000     0.841200000000     0.368      
N        N      0.682650000000     0.959000000000     0.843500000000     0.368      
N        N      0.953550000000     0.742300000000     0.591200000000     0.368      
N        N      0.932650000000     0.709000000000     0.593500000000     0.368      
N        N      0.796450000000     0.507700000000     0.841200000000     0.368      
N        N      0.817350000000     0.541000000000     0.843500000000     0.368      
N        N      0.546450000000     0.757700000000     0.591200000000     0.368      
N        N      0.567350000000     0.791000000000     0.593500000000     0.368      
N        N      0.507700000000     0.658800000000     0.703550000000     0.368      
N        N      0.541000000000     0.656500000000     0.682650000000     0.368      
N        N      0.757700000000     0.908800000000     0.953550000000     0.368      
N        N      0.791000000000     0.906500000000     0.932650000000     0.368      
N        N      0.992300000000     0.658800000000     0.796450000000     0.368      
N        N      0.959000000000     0.656500000000     0.817350000000     0.368      
N        N      0.742300000000     0.908800000000     0.546450000000     0.368      
N        N      0.709000000000     0.906500000000     0.567350000000     0.368      
N        N      0.992300000000     0.841200000000     0.703550000000     0.368      
N        N      0.959000000000     0.843500000000     0.682650000000     0.368      
N        N      0.742300000000     0.591200000000     0.953550000000     0.368      
N        N      0.709000000000     0.593500000000     0.932650000000     0.368      
N        N      0.507700000000     0.841200000000     0.796450000000     0.368      
N        N      0.541000000000     0.843500000000     0.817350000000     0.368      
N        N      0.757700000000     0.591200000000     0.546450000000     0.368      
N        N      0.791000000000     0.593500000000     0.567350000000     0.368      
N        N      0.658800000000     0.703550000000     0.507700000000     0.368      
N        N      0.656500000000     0.682650000000     0.541000000000     0.368      
N        N      0.908800000000     0.953550000000     0.757700000000     0.368      
N        N      0.906500000000     0.932650000000     0.791000000000     0.368      
N        N      0.658800000000     0.796450000000     0.992300000000     0.368      
N        N      0.656500000000     0.817350000000     0.959000000000     0.368      
N        N      0.908800000000     0.546450000000     0.742300000000     0.368      
N        N      0.906500000000     0.567350000000     0.709000000000     0.368      
N        N      0.841200000000     0.703550000000     0.992300000000     0.368      
N        N      0.843500000000     0.682650000000     0.959000000000     0.368      
N        N      0.591200000000     0.953550000000     0.742300000000     0.368      
N        N      0.593500000000     0.932650000000     0.709000000000     0.368      
N        N      0.841200000000     0.796450000000     0.507700000000     0.368      
N        N      0.843500000000     0.817350000000     0.541000000000     0.368      
N        N      0.591200000000     0.546450000000     0.757700000000     0.368      
N        N      0.593500000000     0.567350000000     0.791000000000     0.368      
Zn       Zn     0.000000000000     0.250000000000     0.125000000000     0.378      
Zn       Zn     0.000000000000     0.250000000000     0.375000000000     0.378      
Zn       Zn     0.125000000000     0.000000000000     0.250000000000     0.378      
Zn       Zn     0.375000000000     0.000000000000     0.250000000000     0.378      
Zn       Zn     0.250000000000     0.125000000000     0.000000000000     0.378      
Zn       Zn     0.250000000000     0.375000000000     0.000000000000     0.378      
Zn       Zn     0.250000000000     0.000000000000     0.125000000000     0.378      
Zn       Zn     0.250000000000     0.000000000000     0.375000000000     0.378      
Zn       Zn     0.000000000000     0.125000000000     0.250000000000     0.378      
Zn       Zn     0.000000000000     0.375000000000     0.250000000000     0.378      
Zn       Zn     0.125000000000     0.250000000000     0.000000000000     0.378      
Zn       Zn     0.375000000000     0.250000000000     0.000000000000     0.378      
Zn       Zn     0.000000000000     0.250000000000     0.625000000000     0.378      
Zn       Zn     0.000000000000     0.250000000000     0.875000000000     0.378      
Zn       Zn     0.125000000000     0.000000000000     0.750000000000     0.378      
Zn       Zn     0.375000000000     0.000000000000     0.750000000000     0.378      
Zn       Zn     0.250000000000     0.125000000000     0.500000000000     0.378      
Zn       Zn     0.250000000000     0.375000000000     0.500000000000     0.378      
Zn       Zn     0.250000000000     0.000000000000     0.625000000000     0.378      
Zn       Zn     0.250000000000     0.000000000000     0.875000000000     0.378      
Zn       Zn     0.000000000000     0.125000000000     0.750000000000     0.378      
Zn       Zn     0.000000000000     0.375000000000     0.750000000000     0.378      
Zn       Zn     0.125000000000     0.250000000000     0.500000000000     0.378      
Zn       Zn     0.375000000000     0.250000000000     0.500000000000     0.378      
Zn       Zn     0.000000000000     0.750000000000     0.125000000000     0.378      
Zn       Zn     0.000000000000     0.750000000000     0.375000000000     0.378      
Zn       Zn     0.125000000000     0.500000000000     0.250000000000     0.378      
Zn       Zn     0.375000000000     0.500000000000     0.250000000000     0.378      
Zn       Zn     0.250000000000     0.625000000000     0.000000000000     0.378      
Zn       Zn     0.250000000000     0.875000000000     0.000000000000     0.378      
Zn       Zn     0.250000000000     0.500000000000     0.125000000000     0.378      
Zn       Zn     0.250000000000     0.500000000000     0.375000000000     0.378      
Zn       Zn     0.000000000000     0.625000000000     0.250000000000     0.378      
Zn       Zn     0.000000000000     0.875000000000     0.250000000000     0.378      
Zn       Zn     0.125000000000     0.750000000000     0.000000000000     0.378      
Zn       Zn     0.375000000000     0.750000000000     0.000000000000     0.378      
Zn       Zn     0.000000000000     0.750000000000     0.625000000000     0.378      
Zn       Zn     0.000000000000     0.750000000000     0.875000000000     0.378      
Zn       Zn     0.125000000000     0.500000000000     0.750000000000     0.378      
Zn       Zn     0.375000000000     0.500000000000     0.750000000000     0.378      
Zn       Zn     0.250000000000     0.625000000000     0.500000000000     0.378      
Zn       Zn     0.250000000000     0.875000000000     0.500000000000     0.378      
Zn       Zn     0.250000000000     0.500000000000     0.625000000000     0.378      
Zn       Zn     0.250000000000     0.500000000000     0.875000000000     0.378      
Zn       Zn     0.000000000000     0.625000000000     0.750000000000     0.378      
Zn       Zn     0.000000000000     0.875000000000     0.750000000000     0.378      
Zn       Zn     0.125000000000     0.750000000000     0.500000000000     0.378      
Zn       Zn     0.375000000000     0.750000000000     0.500000000000     0.378      
Zn       Zn     0.500000000000     0.250000000000     0.125000000000     0.378      
Zn       Zn     0.500000000000     0.250000000000     0.375000000000     0.378      
Zn       Zn     0.625000000000     0.000000000000     0.250000000000     0.378      
Zn       Zn     0.875000000000     0.000000000000     0.250000000000     0.378      
Zn       Zn     0.750000000000     0.125000000000     0.000000000000     0.378      
Zn       Zn     0.750000000000     0.375000000000     0.000000000000     0.378      
Zn       Zn     0.750000000000     0.000000000000     0.125000000000     0.378      
Zn       Zn     0.750000000000     0.000000000000     0.375000000000     0.378      
Zn       Zn     0.500000000000     0.125000000000     0.250000000000     0.378      
Zn       Zn     0.500000000000     0.375000000000     0.250000000000     0.378      
Zn       Zn     0.625000000000     0.250000000000     0.000000000000     0.378      
Zn       Zn     0.875000000000     0.250000000000     0.000000000000     0.378      
Zn       Zn     0.500000000000     0.250000000000     0.625000000000     0.378      
Zn       Zn     0.500000000000     0.250000000000     0.875000000000     0.378      
Zn       Zn     0.625000000000     0.000000000000     0.750000000000     0.378      
Zn       Zn     0.875000000000     0.000000000000     0.750000000000     0.378      
Zn       Zn     0.750000000000     0.125000000000     0.500000000000     0.378      
Zn       Zn     0.750000000000     0.375000000000     0.500000000000     0.378      
Zn       Zn     0.750000000000     0.000000000000     0.625000000000     0.378      
Zn       Zn     0.750000000000     0.000000000000     0.875000000000     0.378      
Zn       Zn     0.500000000000     0.125000000000     0.750000000000     0.378      
Zn       Zn     0.500000000000     0.375000000000     0.750000000000     0.378      
Zn       Zn     0.625000000000     0.250000000000     0.500000000000     0.378      
Zn       Zn     0.875000000000     0.250000000000     0.500000000000     0.378      
Zn       Zn     0.500000000000     0.750000000000     0.125000000000     0.378      
Zn       Zn     0.500000000000     0.750000000000     0.375000000000     0.378      
Zn       Zn     0.625000000000     0.500000000000     0.250000000000     0.378      
Zn       Zn     0.875000000000     0.500000000000     0.250000000000     0.378      
Zn       Zn     0.750000000000     0.625000000000     0.000000000000     0.378      
Zn       Zn     0.750000000000     0.875000000000     0.000000000000     0.378      
Zn       Zn     0.750000000000     0.500000000000     0.125000000000     0.378      
Zn       Zn     0.750000000000     0.500000000000     0.375000000000     0.378      
Zn       Zn     0.500000000000     0.625000000000     0.250000000000     0.378      
Zn       Zn     0.500000000000     0.875000000000     0.250000000000     0.378      
Zn       Zn     0.625000000000     0.750000000000     0.000000000000     0.378      
Zn       Zn     0.875000000000     0.750000000000     0.000000000000     0.378      
Zn       Zn     0.500000000000     0.750000000000     0.625000000000     0.378      
Zn       Zn     0.500000000000     0.750000000000     0.875000000000     0.378      
Zn       Zn     0.625000000000     0.500000000000     0.750000000000     0.378      
Zn       Zn     0.875000000000     0.500000000000     0.750000000000     0.378      
Zn       Zn     0.750000000000     0.625000000000     0.500000000000     0.378      
Zn       Zn     0.750000000000     0.875000000000     0.500000000000     0.378      
Zn       Zn     0.750000000000     0.500000000000     0.625000000000     0.378      
Zn       Zn     0.750000000000     0.500000000000     0.875000000000     0.378      
Zn       Zn     0.500000000000     0.625000000000     0.750000000000     0.378      
Zn       Zn     0.500000000000     0.875000000000     0.750000000000     0.378      
Zn       Zn     0.625000000000     0.750000000000     0.500000000000     0.378      
Zn       Zn     0.875000000000     0.750000000000     0.500000000000     0.378      
C        C      0.489250000000     0.187950000000     0.187950000000    -0.388      
C        C      0.449050000000     0.200300000000     0.200300000000    -0.388      
C        C      0.239250000000     0.437950000000     0.437950000000    -0.388      
C        C      0.199050000000     0.450300000000     0.450300000000    -0.388      
C        C      0.010750000000     0.312050000000     0.187950000000    -0.388      
C        C      0.050950000000     0.299700000000     0.200300000000    -0.388      
C        C      0.260750000000     0.062050000000     0.437950000000    -0.388      
C        C      0.300950000000     0.049700000000     0.450300000000    -0.388      
C        C      0.010750000000     0.187950000000     0.312050000000    -0.388      
C        C      0.050950000000     0.200300000000     0.299700000000    -0.388      
C        C      0.260750000000     0.437950000000     0.062050000000    -0.388      
C        C      0.300950000000     0.450300000000     0.049700000000    -0.388      
C        C      0.489250000000     0.312050000000     0.312050000000    -0.388      
C        C      0.449050000000     0.299700000000     0.299700000000    -0.388      
C        C      0.239250000000     0.062050000000     0.062050000000    -0.388      
C        C      0.199050000000     0.049700000000     0.049700000000    -0.388      
C        C      0.187950000000     0.489250000000     0.187950000000    -0.388      
C        C      0.200300000000     0.449050000000     0.200300000000    -0.388      
C        C      0.437950000000     0.239250000000     0.437950000000    -0.388      
C        C      0.450300000000     0.199050000000     0.450300000000    -0.388      
C        C      0.187950000000     0.010750000000     0.312050000000    -0.388      
C        C      0.200300000000     0.050950000000     0.299700000000    -0.388      
C        C      0.437950000000     0.260750000000     0.062050000000    -0.388      
C        C      0.450300000000     0.300950000000     0.049700000000    -0.388      
C        C      0.312050000000     0.010750000000     0.187950000000    -0.388      
C        C      0.299700000000     0.050950000000     0.200300000000    -0.388      
C        C      0.062050000000     0.260750000000     0.437950000000    -0.388      
C        C      0.049700000000     0.300950000000     0.450300000000    -0.388      
C        C      0.312050000000     0.489250000000     0.312050000000    -0.388      
C        C      0.299700000000     0.449050000000     0.299700000000    -0.388      
C        C      0.062050000000     0.239250000000     0.062050000000    -0.388      
C        C      0.049700000000     0.199050000000     0.049700000000    -0.388      
C        C      0.187950000000     0.187950000000     0.489250000000    -0.388      
C        C      0.200300000000     0.200300000000     0.449050000000    -0.388      
C        C      0.437950000000     0.437950000000     0.239250000000    -0.388      
C        C      0.450300000000     0.450300000000     0.199050000000    -0.388      
C        C      0.312050000000     0.187950000000     0.010750000000    -0.388      
C        C      0.299700000000     0.200300000000     0.050950000000    -0.388      
C        C      0.062050000000     0.437950000000     0.260750000000    -0.388      
C        C      0.049700000000     0.450300000000     0.300950000000    -0.388      
C        C      0.187950000000     0.312050000000     0.010750000000    -0.388      
C        C      0.200300000000     0.299700000000     0.050950000000    -0.388      
C        C      0.437950000000     0.062050000000     0.260750000000    -0.388      
C        C      0.450300000000     0.049700000000     0.300950000000    -0.388      
C        C      0.312050000000     0.312050000000     0.489250000000    -0.388      
C        C      0.299700000000     0.299700000000     0.449050000000    -0.388      
C        C      0.062050000000     0.062050000000     0.239250000000    -0.388      
C        C      0.049700000000     0.049700000000     0.199050000000    -0.388      
C        C      0.489250000000     0.187950000000     0.687950000000    -0.388      
C        C      0.449050000000     0.200300000000     0.700300000000    -0.388      
C        C      0.239250000000     0.437950000000     0.937950000000    -0.388      
C        C      0.199050000000     0.450300000000     0.950300000000    -0.388      
C        C      0.010750000000     0.312050000000     0.687950000000    -0.388      
C        C      0.050950000000     0.299700000000     0.700300000000    -0.388      
C        C      0.260750000000     0.062050000000     0.937950000000    -0.388      
C        C      0.300950000000     0.049700000000     0.950300000000    -0.388      
C        C      0.010750000000     0.187950000000     0.812050000000    -0.388      
C        C      0.050950000000     0.200300000000     0.799700000000    -0.388      
C        C      0.260750000000     0.437950000000     0.562050000000    -0.388      
C        C      0.300950000000     0.450300000000     0.549700000000    -0.388      
C        C      0.489250000000     0.312050000000     0.812050000000    -0.388      
C        C      0.449050000000     0.299700000000     0.799700000000    -0.388      
C        C      0.239250000000     0.062050000000     0.562050000000    -0.388      
C        C      0.199050000000     0.049700000000     0.549700000000    -0.388      
C        C      0.187950000000     0.489250000000     0.687950000000    -0.388      
C        C      0.200300000000     0.449050000000     0.700300000000    -0.388      
C        C      0.437950000000     0.239250000000     0.937950000000    -0.388      
C        C      0.450300000000     0.199050000000     0.950300000000    -0.388      
C        C      0.187950000000     0.010750000000     0.812050000000    -0.388      
C        C      0.200300000000     0.050950000000     0.799700000000    -0.388      
C        C      0.437950000000     0.260750000000     0.562050000000    -0.388      
C        C      0.450300000000     0.300950000000     0.549700000000    -0.388      
C        C      0.312050000000     0.010750000000     0.687950000000    -0.388      
C        C      0.299700000000     0.050950000000     0.700300000000    -0.388      
C        C      0.062050000000     0.260750000000     0.937950000000    -0.388      
C        C      0.049700000000     0.300950000000     0.950300000000    -0.388      
C        C      0.312050000000     0.489250000000     0.812050000000    -0.388      
C        C      0.299700000000     0.449050000000     0.799700000000    -0.388      
C        C      0.062050000000     0.239250000000     0.562050000000    -0.388      
C        C      0.049700000000     0.199050000000     0.549700000000    -0.388      
C        C      0.187950000000     0.187950000000     0.989250000000    -0.388      
C        C      0.200300000000     0.200300000000     0.949050000000    -0.388      
C        C      0.437950000000     0.437950000000     0.739250000000    -0.388      
C        C      0.450300000000     0.450300000000     0.699050000000    -0.388      
C        C      0.312050000000     0.187950000000     0.510750000000    -0.388      
C        C      0.299700000000     0.200300000000     0.550950000000    -0.388      
C        C      0.062050000000     0.437950000000     0.760750000000    -0.388      
C        C      0.049700000000     0.450300000000     0.800950000000    -0.388      
C        C      0.187950000000     0.312050000000     0.510750000000    -0.388      
C        C      0.200300000000     0.299700000000     0.550950000000    -0.388      
C        C      0.437950000000     0.062050000000     0.760750000000    -0.388      
C        C      0.450300000000     0.049700000000     0.800950000000    -0.388      
C        C      0.312050000000     0.312050000000     0.989250000000    -0.388      
C        C      0.299700000000     0.299700000000     0.949050000000    -0.388      
C        C      0.062050000000     0.062050000000     0.739250000000    -0.388      
C        C      0.049700000000     0.049700000000     0.699050000000    -0.388      
C        C      0.489250000000     0.687950000000     0.187950000000    -0.388      
C        C      0.449050000000     0.700300000000     0.200300000000    -0.388      
C        C      0.239250000000     0.937950000000     0.437950000000    -0.388      
C        C      0.199050000000     0.950300000000     0.450300000000    -0.388      
C        C      0.010750000000     0.812050000000     0.187950000000    -0.388      
C        C      0.050950000000     0.799700000000     0.200300000000    -0.388      
C        C      0.260750000000     0.562050000000     0.437950000000    -0.388      
C        C      0.300950000000     0.549700000000     0.450300000000    -0.388      
C        C      0.010750000000     0.687950000000     0.312050000000    -0.388      
C        C      0.050950000000     0.700300000000     0.299700000000    -0.388      
C        C      0.260750000000     0.937950000000     0.062050000000    -0.388      
C        C      0.300950000000     0.950300000000     0.049700000000    -0.388      
C        C      0.489250000000     0.812050000000     0.312050000000    -0.388      
C        C      0.449050000000     0.799700000000     0.299700000000    -0.388      
C        C      0.239250000000     0.562050000000     0.062050000000    -0.388      
C        C      0.199050000000     0.549700000000     0.049700000000    -0.388      
C        C      0.187950000000     0.989250000000     0.187950000000    -0.388      
C        C      0.200300000000     0.949050000000     0.200300000000    -0.388      
C        C      0.437950000000     0.739250000000     0.437950000000    -0.388      
C        C      0.450300000000     0.699050000000     0.450300000000    -0.388      
C        C      0.187950000000     0.510750000000     0.312050000000    -0.388      
C        C      0.200300000000     0.550950000000     0.299700000000    -0.388      
C        C      0.437950000000     0.760750000000     0.062050000000    -0.388      
C        C      0.450300000000     0.800950000000     0.049700000000    -0.388      
C        C      0.312050000000     0.510750000000     0.187950000000    -0.388      
C        C      0.299700000000     0.550950000000     0.200300000000    -0.388      
C        C      0.062050000000     0.760750000000     0.437950000000    -0.388      
C        C      0.049700000000     0.800950000000     0.450300000000    -0.388      
C        C      0.312050000000     0.989250000000     0.312050000000    -0.388      
C        C      0.299700000000     0.949050000000     0.299700000000    -0.388      
C        C      0.062050000000     0.739250000000     0.062050000000    -0.388      
C        C      0.049700000000     0.699050000000     0.049700000000    -0.388      
C        C      0.187950000000     0.687950000000     0.489250000000    -0.388      
C        C      0.200300000000     0.700300000000     0.449050000000    -0.388      
C        C      0.437950000000     0.937950000000     0.239250000000    -0.388      
C        C      0.450300000000     0.950300000000     0.199050000000    -0.388      
C        C      0.312050000000     0.687950000000     0.010750000000    -0.388      
C        C      0.299700000000     0.700300000000     0.050950000000    -0.388      
C        C      0.062050000000     0.937950000000     0.260750000000    -0.388      
C        C      0.049700000000     0.950300000000     0.300950000000    -0.388      
C        C      0.187950000000     0.812050000000     0.010750000000    -0.388      
C        C      0.200300000000     0.799700000000     0.050950000000    -0.388      
C        C      0.437950000000     0.562050000000     0.260750000000    -0.388      
C        C      0.450300000000     0.549700000000     0.300950000000    -0.388      
C        C      0.312050000000     0.812050000000     0.489250000000    -0.388      
C        C      0.299700000000     0.799700000000     0.449050000000    -0.388      
C        C      0.062050000000     0.562050000000     0.239250000000    -0.388      
C        C      0.049700000000     0.549700000000     0.199050000000    -0.388      
C        C      0.489250000000     0.687950000000     0.687950000000    -0.388      
C        C      0.449050000000     0.700300000000     0.700300000000    -0.388      
C        C      0.239250000000     0.937950000000     0.937950000000    -0.388      
C        C      0.199050000000     0.950300000000     0.950300000000    -0.388      
C        C      0.010750000000     0.812050000000     0.687950000000    -0.388      
C        C      0.050950000000     0.799700000000     0.700300000000    -0.388      
C        C      0.260750000000     0.562050000000     0.937950000000    -0.388      
C        C      0.300950000000     0.549700000000     0.950300000000    -0.388      
C        C      0.010750000000     0.687950000000     0.812050000000    -0.388      
C        C      0.050950000000     0.700300000000     0.799700000000    -0.388      
C        C      0.260750000000     0.937950000000     0.562050000000    -0.388      
C        C      0.300950000000     0.950300000000     0.549700000000    -0.388      
C        C      0.489250000000     0.812050000000     0.812050000000    -0.388      
C        C      0.449050000000     0.799700000000     0.799700000000    -0.388      
C        C      0.239250000000     0.562050000000     0.562050000000    -0.388      
C        C      0.199050000000     0.549700000000     0.549700000000    -0.388      
C        C      0.187950000000     0.989250000000     0.687950000000    -0.388      
C        C      0.200300000000     0.949050000000     0.700300000000    -0.388      
C        C      0.437950000000     0.739250000000     0.937950000000    -0.388      
C        C      0.450300000000     0.699050000000     0.950300000000    -0.388      
C        C      0.187950000000     0.510750000000     0.812050000000    -0.388      
C        C      0.200300000000     0.550950000000     0.799700000000    -0.388      
C        C      0.437950000000     0.760750000000     0.562050000000    -0.388      
C        C      0.450300000000     0.800950000000     0.549700000000    -0.388      
C        C      0.312050000000     0.510750000000     0.687950000000    -0.388      
C        C      0.299700000000     0.550950000000     0.700300000000    -0.388      
C        C      0.062050000000     0.760750000000     0.937950000000    -0.388      
C        C      0.049700000000     0.800950000000     0.950300000000    -0.388      
C        C      0.312050000000     0.989250000000     0.812050000000    -0.388      
C        C      0.299700000000     0.949050000000     0.799700000000    -0.388      
C        C      0.062050000000     0.739250000000     0.562050000000    -0.388      
C        C      0.049700000000     0.699050000000     0.549700000000    -0.388      
C        C      0.187950000000     0.687950000000     0.989250000000    -0.388      
C        C      0.200300000000     0.700300000000     0.949050000000    -0.388      
C        C      0.437950000000     0.937950000000     0.739250000000    -0.388      
C        C      0.450300000000     0.950300000000     0.699050000000    -0.388      
C        C      0.312050000000     0.687950000000     0.510750000000    -0.388      
C        C      0.299700000000     0.700300000000     0.550950000000    -0.388      
C        C      0.062050000000     0.937950000000     0.760750000000    -0.388      
C        C      0.049700000000     0.950300000000     0.800950000000    -0.388      
C        C      0.187950000000     0.812050000000     0.510750000000    -0.388      
C        C      0.200300000000     0.799700000000     0.550950000000    -0.388      
C        C      0.437950000000     0.562050000000     0.760750000000    -0.388      
C        C      0.450300000000     0.549700000000     0.800950000000    -0.388      
C        C      0.312050000000     0.812050000000     0.989250000000    -0.388      
C        C      0.299700000000     0.799700000000     0.949050000000    -0.388      
C        C      0.062050000000     0.562050000000     0.739250000000    -0.388      
C        C      0.049700000000     0.549700000000     0.699050000000    -0.388      
C        C      0.989250000000     0.187950000000     0.187950000000    -0.388      
C        C      0.949050000000     0.200300000000     0.200300000000    -0.388      
C        C      0.739250000000     0.437950000000     0.437950000000    -0.388      
C        C      0.699050000000     0.450300000000     0.450300000000    -0.388      
C        C      0.510750000000     0.312050000000     0.187950000000    -0.388      
C        C      0.550950000000     0.299700000000     0.200300000000    -0.388      
C        C      0.760750000000     0.062050000000     0.437950000000    -0.388      
C        C      0.800950000000     0.049700000000     0.450300000000    -0.388      
C        C      0.510750000000     0.187950000000     0.312050000000    -0.388      
C        C      0.550950000000     0.200300000000     0.299700000000    -0.388      
C        C      0.760750000000     0.437950000000     0.062050000000    -0.388      
C        C      0.800950000000     0.450300000000     0.049700000000    -0.388      
C        C      0.989250000000     0.312050000000     0.312050000000    -0.388      
C        C      0.949050000000     0.299700000000     0.299700000000    -0.388      
C        C      0.739250000000     0.062050000000     0.062050000000    -0.388      
C        C      0.699050000000     0.049700000000     0.049700000000    -0.388      
C        C      0.687950000000     0.489250000000     0.187950000000    -0.388      
C        C      0.700300000000     0.449050000000     0.200300000000    -0.388      
C        C      0.937950000000     0.239250000000     0.437950000000    -0.388      
C        C      0.950300000000     0.199050000000     0.450300000000    -0.388      
C        C      0.687950000000     0.010750000000     0.312050000000    -0.388      
C        C      0.700300000000     0.050950000000     0.299700000000    -0.388      
C        C      0.937950000000     0.260750000000     0.062050000000    -0.388      
C        C      0.950300000000     0.300950000000     0.049700000000    -0.388      
C        C      0.812050000000     0.010750000000     0.187950000000    -0.388      
C        C      0.799700000000     0.050950000000     0.200300000000    -0.388      
C        C      0.562050000000     0.260750000000     0.437950000000    -0.388      
C        C      0.549700000000     0.300950000000     0.450300000000    -0.388      
C        C      0.812050000000     0.489250000000     0.312050000000    -0.388      
C        C      0.799700000000     0.449050000000     0.299700000000    -0.388      
C        C      0.562050000000     0.239250000000     0.062050000000    -0.388      
C        C      0.549700000000     0.199050000000     0.049700000000    -0.388      
C        C      0.687950000000     0.187950000000     0.489250000000    -0.388      
C        C      0.700300000000     0.200300000000     0.449050000000    -0.388      
C        C      0.937950000000     0.437950000000     0.239250000000    -0.388      
C        C      0.950300000000     0.450300000000     0.199050000000    -0.388      
C        C      0.812050000000     0.187950000000     0.010750000000    -0.388      
C        C      0.799700000000     0.200300000000     0.050950000000    -0.388      
C        C      0.562050000000     0.437950000000     0.260750000000    -0.388      
C        C      0.549700000000     0.450300000000     0.300950000000    -0.388      
C        C      0.687950000000     0.312050000000     0.010750000000    -0.388      
C        C      0.700300000000     0.299700000000     0.050950000000    -0.388      
C        C      0.937950000000     0.062050000000     0.260750000000    -0.388      
C        C      0.950300000000     0.049700000000     0.300950000000    -0.388      
C        C      0.812050000000     0.312050000000     0.489250000000    -0.388      
C        C      0.799700000000     0.299700000000     0.449050000000    -0.388      
C        C      0.562050000000     0.062050000000     0.239250000000    -0.388      
C        C      0.549700000000     0.049700000000     0.199050000000    -0.388      
C        C      0.989250000000     0.187950000000     0.687950000000    -0.388      
C        C      0.949050000000     0.200300000000     0.700300000000    -0.388      
C        C      0.739250000000     0.437950000000     0.937950000000    -0.388      
C        C      0.699050000000     0.450300000000     0.950300000000    -0.388      
C        C      0.510750000000     0.312050000000     0.687950000000    -0.388      
C        C      0.550950000000     0.299700000000     0.700300000000    -0.388      
C        C      0.760750000000     0.062050000000     0.937950000000    -0.388      
C        C      0.800950000000     0.049700000000     0.950300000000    -0.388      
C        C      0.510750000000     0.187950000000     0.812050000000    -0.388      
C        C      0.550950000000     0.200300000000     0.799700000000    -0.388      
C        C      0.760750000000     0.437950000000     0.562050000000    -0.388      
C        C      0.800950000000     0.450300000000     0.549700000000    -0.388      
C        C      0.989250000000     0.312050000000     0.812050000000    -0.388      
C        C      0.949050000000     0.299700000000     0.799700000000    -0.388      
C        C      0.739250000000     0.062050000000     0.562050000000    -0.388      
C        C      0.699050000000     0.049700000000     0.549700000000    -0.388      
C        C      0.687950000000     0.489250000000     0.687950000000    -0.388      
C        C      0.700300000000     0.449050000000     0.700300000000    -0.388      
C        C      0.937950000000     0.239250000000     0.937950000000    -0.388      
C        C      0.950300000000     0.199050000000     0.950300000000    -0.388      
C        C      0.687950000000     0.010750000000     0.812050000000    -0.388      
C        C      0.700300000000     0.050950000000     0.799700000000    -0.388      
C        C      0.937950000000     0.260750000000     0.562050000000    -0.388      
C        C      0.950300000000     0.300950000000     0.549700000000    -0.388      
C        C      0.812050000000     0.010750000000     0.687950000000    -0.388      
C        C      0.799700000000     0.050950000000     0.700300000000    -0.388      
C        C      0.562050000000     0.260750000000     0.937950000000    -0.388      
C        C      0.549700000000     0.300950000000     0.950300000000    -0.388      
C        C      0.812050000000     0.489250000000     0.812050000000    -0.388      
C        C      0.799700000000     0.449050000000     0.799700000000    -0.388      
C        C      0.562050000000     0.239250000000     0.562050000000    -0.388      
C        C      0.549700000000     0.199050000000     0.549700000000    -0.388      
C        C      0.687950000000     0.187950000000     0.989250000000    -0.388      
C        C      0.700300000000     0.200300000000     0.949050000000    -0.388      
C        C      0.937950000000     0.437950000000     0.739250000000    -0.388      
C        C      0.950300000000     0.450300000000     0.699050000000    -0.388      
C        C      0.812050000000     0.187950000000     0.510750000000    -0.388      
C        C      0.799700000000     0.200300000000     0.550950000000    -0.388      
C        C      0.562050000000     0.437950000000     0.760750000000    -0.388      
C        C      0.549700000000     0.450300000000     0.800950000000    -0.388      
C        C      0.687950000000     0.312050000000     0.510750000000    -0.388      
C        C      0.700300000000     0.299700000000     0.550950000000    -0.388      
C        C      0.937950000000     0.062050000000     0.760750000000    -0.388      
C        C      0.950300000000     0.049700000000     0.800950000000    -0.388      
C        C      0.812050000000     0.312050000000     0.989250000000    -0.388      
C        C      0.799700000000     0.299700000000     0.949050000000    -0.388      
C        C      0.562050000000     0.062050000000     0.739250000000    -0.388      
C        C      0.549700000000     0.049700000000     0.699050000000    -0.388      
C        C      0.989250000000     0.687950000000     0.187950000000    -0.388      
C        C      0.949050000000     0.700300000000     0.200300000000    -0.388      
C        C      0.739250000000     0.937950000000     0.437950000000    -0.388      
C        C      0.699050000000     0.950300000000     0.450300000000    -0.388      
C        C      0.510750000000     0.812050000000     0.187950000000    -0.388      
C        C      0.550950000000     0.799700000000     0.200300000000    -0.388      
C        C      0.760750000000     0.562050000000     0.437950000000    -0.388      
C        C      0.800950000000     0.549700000000     0.450300000000    -0.388      
C        C      0.510750000000     0.687950000000     0.312050000000    -0.388      
C        C      0.550950000000     0.700300000000     0.299700000000    -0.388      
C        C      0.760750000000     0.937950000000     0.062050000000    -0.388      
C        C      0.800950000000     0.950300000000     0.049700000000    -0.388      
C        C      0.989250000000     0.812050000000     0.312050000000    -0.388      
C        C      0.949050000000     0.799700000000     0.299700000000    -0.388      
C        C      0.739250000000     0.562050000000     0.062050000000    -0.388      
C        C      0.699050000000     0.549700000000     0.049700000000    -0.388      
C        C      0.687950000000     0.989250000000     0.187950000000    -0.388      
C        C      0.700300000000     0.949050000000     0.200300000000    -0.388      
C        C      0.937950000000     0.739250000000     0.437950000000    -0.388      
C        C      0.950300000000     0.699050000000     0.450300000000    -0.388      
C        C      0.687950000000     0.510750000000     0.312050000000    -0.388      
C        C      0.700300000000     0.550950000000     0.299700000000    -0.388      
C        C      0.937950000000     0.760750000000     0.062050000000    -0.388      
C        C      0.950300000000     0.800950000000     0.049700000000    -0.388      
C        C      0.812050000000     0.510750000000     0.187950000000    -0.388      
C        C      0.799700000000     0.550950000000     0.200300000000    -0.388      
C        C      0.562050000000     0.760750000000     0.437950000000    -0.388      
C        C      0.549700000000     0.800950000000     0.450300000000    -0.388      
C        C      0.812050000000     0.989250000000     0.312050000000    -0.388      
C        C      0.799700000000     0.949050000000     0.299700000000    -0.388      
C        C      0.562050000000     0.739250000000     0.062050000000    -0.388      
C        C      0.549700000000     0.699050000000     0.049700000000    -0.388      
C        C      0.687950000000     0.687950000000     0.489250000000    -0.388      
C        C      0.700300000000     0.700300000000     0.449050000000    -0.388      
C        C      0.937950000000     0.937950000000     0.239250000000    -0.388      
C        C      0.950300000000     0.950300000000     0.199050000000    -0.388      
C        C      0.812050000000     0.687950000000     0.010750000000    -0.388      
C        C      0.799700000000     0.700300000000     0.050950000000    -0.388      
C        C      0.562050000000     0.937950000000     0.260750000000    -0.388      
C        C      0.549700000000     0.950300000000     0.300950000000    -0.388      
C        C      0.687950000000     0.812050000000     0.010750000000    -0.388      
C        C      0.700300000000     0.799700000000     0.050950000000    -0.388      
C        C      0.937950000000     0.562050000000     0.260750000000    -0.388      
C        C      0.950300000000     0.549700000000     0.300950000000    -0.388      
C        C      0.812050000000     0.812050000000     0.489250000000    -0.388      
C        C      0.799700000000     0.799700000000     0.449050000000    -0.388      
C        C      0.562050000000     0.562050000000     0.239250000000    -0.388      
C        C      0.549700000000     0.549700000000     0.199050000000    -0.388      
C        C      0.989250000000     0.687950000000     0.687950000000    -0.388      
C        C      0.949050000000     0.700300000000     0.700300000000    -0.388      
C        C      0.739250000000     0.937950000000     0.937950000000    -0.388      
C        C      0.699050000000     0.950300000000     0.950300000000    -0.388      
C        C      0.510750000000     0.812050000000     0.687950000000    -0.388      
C        C      0.550950000000     0.799700000000     0.700300000000    -0.388      
C        C      0.760750000000     0.562050000000     0.937950000000    -0.388      
C        C      0.800950000000     0.549700000000     0.950300000000    -0.388      
C        C      0.510750000000     0.687950000000     0.812050000000    -0.388      
C        C      0.550950000000     0.700300000000     0.799700000000    -0.388      
C        C      0.760750000000     0.937950000000     0.562050000000    -0.388      
C        C      0.800950000000     0.950300000000     0.549700000000    -0.388      
C        C      0.989250000000     0.812050000000     0.812050000000    -0.388      
C        C      0.949050000000     0.799700000000     0.799700000000    -0.388      
C        C      0.739250000000     0.562050000000     0.562050000000    -0.388      
C        C      0.699050000000     0.549700000000     0.549700000000    -0.388      
C        C      0.687950000000     0.989250000000     0.687950000000    -0.388      
C        C      0.700300000000     0.949050000000     0.700300000000    -0.388      
C        C      0.937950000000     0.739250000000     0.937950000000    -0.388      
C        C      0.950300000000     0.699050000000     0.950300000000    -0.388      
C        C      0.687950000000     0.510750000000     0.812050000000    -0.388      
C        C      0.700300000000     0.550950000000     0.799700000000    -0.388      
C        C      0.937950000000     0.760750000000     0.562050000000    -0.388      
C        C      0.950300000000     0.800950000000     0.549700000000    -0.388      
C        C      0.812050000000     0.510750000000     0.687950000000    -0.388      
C        C      0.799700000000     0.550950000000     0.700300000000    -0.388      
C        C      0.562050000000     0.760750000000     0.937950000000    -0.388      
C        C      0.549700000000     0.800950000000     0.950300000000    -0.388      
C        C      0.812050000000     0.989250000000     0.812050000000    -0.388      
C        C      0.799700000000     0.949050000000     0.799700000000    -0.388      
C        C      0.562050000000     0.739250000000     0.562050000000    -0.388      
C        C      0.549700000000     0.699050000000     0.549700000000    -0.388      
C        C      0.687950000000     0.687950000000     0.989250000000    -0.388      
C        C      0.700300000000     0.700300000000     0.949050000000    -0.388      
C        C      0.937950000000     0.937950000000     0.739250000000    -0.388      
C        C      0.950300000000     0.950300000000     0.699050000000    -0.388      
C        C      0.812050000000     0.687950000000     0.510750000000    -0.388      
C        C      0.799700000000     0.700300000000     0.550950000000    -0.388      
C        C      0.562050000000     0.937950000000     0.760750000000    -0.388      
C        C      0.549700000000     0.950300000000     0.800950000000    -0.388      
C        C      0.687950000000     0.812050000000     0.510750000000    -0.388      
C        C      0.700300000000     0.799700000000     0.550950000000    -0.388      
C        C      0.937950000000     0.562050000000     0.760750000000    -0.388      
C        C      0.950300000000     0.549700000000     0.800950000000    -0.388      
C        C      0.812050000000     0.812050000000     0.989250000000    -0.388      
C        C      0.799700000000     0.799700000000     0.949050000000    -0.388      
C        C      0.562050000000     0.562050000000     0.739250000000    -0.388      
C        C      0.549700000000     0.549700000000     0.699050000000    -0.388      


