data_[CoreMOF]c6cc00589f_c6cc00589f2_clean

_audit_creation_method RASPA-1.0
_audit_creation_date 2025-1-23
_audit_author_name ''

_cell_length_a    17.1168
_cell_length_b    17.1168
_cell_length_c    17.1168
_cell_angle_alpha 90
_cell_angle_beta  90
_cell_angle_gamma 90
_cell_volume      40119.7

_symmetry_cell_setting          triclinic
_symmetry_space_group_name_Hall 'P 1'
_symmetry_space_group_name_H-M  'P 1'
_symmetry_Int_Tables_number     1

_symmetry_equiv_pos_as_xyz 'x,y,z'

loop_
_atom_site_label
_atom_site_type_symbol
_atom_site_fract_x
_atom_site_fract_y
_atom_site_fract_z
_atom_site_charge
N1       N      0.007700000000     0.203550000000     0.158800000000     0          
N1       N      0.007700000000     0.203550000000     0.658800000000     0          
N1       N      0.007700000000     0.703550000000     0.158800000000     0          
N1       N      0.007700000000     0.703550000000     0.658800000000     0          
N1       N      0.507700000000     0.203550000000     0.158800000000     0          
N1       N      0.507700000000     0.203550000000     0.658800000000     0          
N1       N      0.507700000000     0.703550000000     0.158800000000     0          
N1       N      0.507700000000     0.703550000000     0.658800000000     0          
N2       N      0.041000000000     0.182650000000     0.156500000000     0          
N2       N      0.041000000000     0.182650000000     0.656500000000     0          
N2       N      0.041000000000     0.682650000000     0.156500000000     0          
N2       N      0.041000000000     0.682650000000     0.656500000000     0          
N2       N      0.541000000000     0.182650000000     0.156500000000     0          
N2       N      0.541000000000     0.182650000000     0.656500000000     0          
N2       N      0.541000000000     0.682650000000     0.156500000000     0          
N2       N      0.541000000000     0.682650000000     0.656500000000     0          
H1       H      0.440950000000     0.185050000000     0.222400000000     0          
H1       H      0.440950000000     0.185050000000     0.722400000000     0          
H1       H      0.440950000000     0.685050000000     0.222400000000     0          
H1       H      0.440950000000     0.685050000000     0.722400000000     0          
H1       H      0.940950000000     0.185050000000     0.222400000000     0          
H1       H      0.940950000000     0.185050000000     0.722400000000     0          
H1       H      0.940950000000     0.685050000000     0.222400000000     0          
H1       H      0.940950000000     0.685050000000     0.722400000000     0          
H2       H      0.449300000000     0.227450000000     0.207250000000     0          
H2       H      0.449300000000     0.227450000000     0.707250000000     0          
H2       H      0.449300000000     0.727450000000     0.207250000000     0          
H2       H      0.449300000000     0.727450000000     0.707250000000     0          
H2       H      0.949300000000     0.227450000000     0.207250000000     0          
H2       H      0.949300000000     0.227450000000     0.707250000000     0          
H2       H      0.949300000000     0.727450000000     0.207250000000     0          
H2       H      0.949300000000     0.727450000000     0.707250000000     0          
H3       H      0.431100000000     0.196250000000     0.179100000000     0          
H3       H      0.431100000000     0.196250000000     0.679100000000     0          
H3       H      0.431100000000     0.696250000000     0.179100000000     0          
H3       H      0.431100000000     0.696250000000     0.679100000000     0          
H3       H      0.931100000000     0.196250000000     0.179100000000     0          
H3       H      0.931100000000     0.196250000000     0.679100000000     0          
H3       H      0.931100000000     0.696250000000     0.179100000000     0          
H3       H      0.931100000000     0.696250000000     0.679100000000     0          
N3       N      0.257700000000     0.453550000000     0.408800000000     0          
N3       N      0.257700000000     0.453550000000     0.908800000000     0          
N3       N      0.257700000000     0.953550000000     0.408800000000     0          
N3       N      0.257700000000     0.953550000000     0.908800000000     0          
N3       N      0.757700000000     0.453550000000     0.408800000000     0          
N3       N      0.757700000000     0.453550000000     0.908800000000     0          
N3       N      0.757700000000     0.953550000000     0.408800000000     0          
N3       N      0.757700000000     0.953550000000     0.908800000000     0          
N4       N      0.291000000000     0.432650000000     0.406500000000     0          
N4       N      0.291000000000     0.432650000000     0.906500000000     0          
N4       N      0.291000000000     0.932650000000     0.406500000000     0          
N4       N      0.291000000000     0.932650000000     0.906500000000     0          
N4       N      0.791000000000     0.432650000000     0.406500000000     0          
N4       N      0.791000000000     0.432650000000     0.906500000000     0          
N4       N      0.791000000000     0.932650000000     0.406500000000     0          
N4       N      0.791000000000     0.932650000000     0.906500000000     0          
H4       H      0.190950000000     0.435050000000     0.472400000000     0          
H4       H      0.190950000000     0.435050000000     0.972400000000     0          
H4       H      0.190950000000     0.935050000000     0.472400000000     0          
H4       H      0.190950000000     0.935050000000     0.972400000000     0          
H4       H      0.690950000000     0.435050000000     0.472400000000     0          
H4       H      0.690950000000     0.435050000000     0.972400000000     0          
H4       H      0.690950000000     0.935050000000     0.472400000000     0          
H4       H      0.690950000000     0.935050000000     0.972400000000     0          
H5       H      0.199300000000     0.477450000000     0.457250000000     0          
H5       H      0.199300000000     0.477450000000     0.957250000000     0          
H5       H      0.199300000000     0.977450000000     0.457250000000     0          
H5       H      0.199300000000     0.977450000000     0.957250000000     0          
H5       H      0.699300000000     0.477450000000     0.457250000000     0          
H5       H      0.699300000000     0.477450000000     0.957250000000     0          
H5       H      0.699300000000     0.977450000000     0.457250000000     0          
H5       H      0.699300000000     0.977450000000     0.957250000000     0          
H6       H      0.181100000000     0.446250000000     0.429100000000     0          
H6       H      0.181100000000     0.446250000000     0.929100000000     0          
H6       H      0.181100000000     0.946250000000     0.429100000000     0          
H6       H      0.181100000000     0.946250000000     0.929100000000     0          
H6       H      0.681100000000     0.446250000000     0.429100000000     0          
H6       H      0.681100000000     0.446250000000     0.929100000000     0          
H6       H      0.681100000000     0.946250000000     0.429100000000     0          
H6       H      0.681100000000     0.946250000000     0.929100000000     0          
N5       N      0.492300000000     0.296450000000     0.158800000000     0          
N5       N      0.492300000000     0.296450000000     0.658800000000     0          
N5       N      0.492300000000     0.796450000000     0.158800000000     0          
N5       N      0.492300000000     0.796450000000     0.658800000000     0          
N5       N      0.992300000000     0.296450000000     0.158800000000     0          
N5       N      0.992300000000     0.296450000000     0.658800000000     0          
N5       N      0.992300000000     0.796450000000     0.158800000000     0          
N5       N      0.992300000000     0.796450000000     0.658800000000     0          
N6       N      0.459000000000     0.317350000000     0.156500000000     0          
N6       N      0.459000000000     0.317350000000     0.656500000000     0          
N6       N      0.459000000000     0.817350000000     0.156500000000     0          
N6       N      0.459000000000     0.817350000000     0.656500000000     0          
N6       N      0.959000000000     0.317350000000     0.156500000000     0          
N6       N      0.959000000000     0.317350000000     0.656500000000     0          
N6       N      0.959000000000     0.817350000000     0.156500000000     0          
N6       N      0.959000000000     0.817350000000     0.656500000000     0          
H7       H      0.059050000000     0.314950000000     0.222400000000     0          
H7       H      0.059050000000     0.314950000000     0.722400000000     0          
H7       H      0.059050000000     0.814950000000     0.222400000000     0          
H7       H      0.059050000000     0.814950000000     0.722400000000     0          
H7       H      0.559050000000     0.314950000000     0.222400000000     0          
H7       H      0.559050000000     0.314950000000     0.722400000000     0          
H7       H      0.559050000000     0.814950000000     0.222400000000     0          
H7       H      0.559050000000     0.814950000000     0.722400000000     0          
H8       H      0.050700000000     0.272550000000     0.207250000000     0          
H8       H      0.050700000000     0.272550000000     0.707250000000     0          
H8       H      0.050700000000     0.772550000000     0.207250000000     0          
H8       H      0.050700000000     0.772550000000     0.707250000000     0          
H8       H      0.550700000000     0.272550000000     0.207250000000     0          
H8       H      0.550700000000     0.272550000000     0.707250000000     0          
H8       H      0.550700000000     0.772550000000     0.207250000000     0          
H8       H      0.550700000000     0.772550000000     0.707250000000     0          
H9       H      0.068900000000     0.303750000000     0.179100000000     0          
H9       H      0.068900000000     0.303750000000     0.679100000000     0          
H9       H      0.068900000000     0.803750000000     0.179100000000     0          
H9       H      0.068900000000     0.803750000000     0.679100000000     0          
H9       H      0.568900000000     0.303750000000     0.179100000000     0          
H9       H      0.568900000000     0.303750000000     0.679100000000     0          
H9       H      0.568900000000     0.803750000000     0.179100000000     0          
H9       H      0.568900000000     0.803750000000     0.679100000000     0          
N7       N      0.242300000000     0.046450000000     0.408800000000     0          
N7       N      0.242300000000     0.046450000000     0.908800000000     0          
N7       N      0.242300000000     0.546450000000     0.408800000000     0          
N7       N      0.242300000000     0.546450000000     0.908800000000     0          
N7       N      0.742300000000     0.046450000000     0.408800000000     0          
N7       N      0.742300000000     0.046450000000     0.908800000000     0          
N7       N      0.742300000000     0.546450000000     0.408800000000     0          
N7       N      0.742300000000     0.546450000000     0.908800000000     0          
N8       N      0.209000000000     0.067350000000     0.406500000000     0          
N8       N      0.209000000000     0.067350000000     0.906500000000     0          
N8       N      0.209000000000     0.567350000000     0.406500000000     0          
N8       N      0.209000000000     0.567350000000     0.906500000000     0          
N8       N      0.709000000000     0.067350000000     0.406500000000     0          
N8       N      0.709000000000     0.067350000000     0.906500000000     0          
N8       N      0.709000000000     0.567350000000     0.406500000000     0          
N8       N      0.709000000000     0.567350000000     0.906500000000     0          
H10      H      0.309050000000     0.064950000000     0.472400000000     0          
H10      H      0.309050000000     0.064950000000     0.972400000000     0          
H10      H      0.309050000000     0.564950000000     0.472400000000     0          
H10      H      0.309050000000     0.564950000000     0.972400000000     0          
H10      H      0.809050000000     0.064950000000     0.472400000000     0          
H10      H      0.809050000000     0.064950000000     0.972400000000     0          
H10      H      0.809050000000     0.564950000000     0.472400000000     0          
H10      H      0.809050000000     0.564950000000     0.972400000000     0          
H11      H      0.300700000000     0.022550000000     0.457250000000     0          
H11      H      0.300700000000     0.022550000000     0.957250000000     0          
H11      H      0.300700000000     0.522550000000     0.457250000000     0          
H11      H      0.300700000000     0.522550000000     0.957250000000     0          
H11      H      0.800700000000     0.022550000000     0.457250000000     0          
H11      H      0.800700000000     0.022550000000     0.957250000000     0          
H11      H      0.800700000000     0.522550000000     0.457250000000     0          
H11      H      0.800700000000     0.522550000000     0.957250000000     0          
H12      H      0.318900000000     0.053750000000     0.429100000000     0          
H12      H      0.318900000000     0.053750000000     0.929100000000     0          
H12      H      0.318900000000     0.553750000000     0.429100000000     0          
H12      H      0.318900000000     0.553750000000     0.929100000000     0          
H12      H      0.818900000000     0.053750000000     0.429100000000     0          
H12      H      0.818900000000     0.053750000000     0.929100000000     0          
H12      H      0.818900000000     0.553750000000     0.429100000000     0          
H12      H      0.818900000000     0.553750000000     0.929100000000     0          
N9       N      0.492300000000     0.203550000000     0.341200000000     0          
N9       N      0.492300000000     0.203550000000     0.841200000000     0          
N9       N      0.492300000000     0.703550000000     0.341200000000     0          
N9       N      0.492300000000     0.703550000000     0.841200000000     0          
N9       N      0.992300000000     0.203550000000     0.341200000000     0          
N9       N      0.992300000000     0.203550000000     0.841200000000     0          
N9       N      0.992300000000     0.703550000000     0.341200000000     0          
N9       N      0.992300000000     0.703550000000     0.841200000000     0          
N10      N      0.459000000000     0.182650000000     0.343500000000     0          
N10      N      0.459000000000     0.182650000000     0.843500000000     0          
N10      N      0.459000000000     0.682650000000     0.343500000000     0          
N10      N      0.459000000000     0.682650000000     0.843500000000     0          
N10      N      0.959000000000     0.182650000000     0.343500000000     0          
N10      N      0.959000000000     0.182650000000     0.843500000000     0          
N10      N      0.959000000000     0.682650000000     0.343500000000     0          
N10      N      0.959000000000     0.682650000000     0.843500000000     0          
H13      H      0.059050000000     0.185050000000     0.277600000000     0          
H13      H      0.059050000000     0.185050000000     0.777600000000     0          
H13      H      0.059050000000     0.685050000000     0.277600000000     0          
H13      H      0.059050000000     0.685050000000     0.777600000000     0          
H13      H      0.559050000000     0.185050000000     0.277600000000     0          
H13      H      0.559050000000     0.185050000000     0.777600000000     0          
H13      H      0.559050000000     0.685050000000     0.277600000000     0          
H13      H      0.559050000000     0.685050000000     0.777600000000     0          
H14      H      0.050700000000     0.227450000000     0.292750000000     0          
H14      H      0.050700000000     0.227450000000     0.792750000000     0          
H14      H      0.050700000000     0.727450000000     0.292750000000     0          
H14      H      0.050700000000     0.727450000000     0.792750000000     0          
H14      H      0.550700000000     0.227450000000     0.292750000000     0          
H14      H      0.550700000000     0.227450000000     0.792750000000     0          
H14      H      0.550700000000     0.727450000000     0.292750000000     0          
H14      H      0.550700000000     0.727450000000     0.792750000000     0          
H15      H      0.068900000000     0.196250000000     0.320900000000     0          
H15      H      0.068900000000     0.196250000000     0.820900000000     0          
H15      H      0.068900000000     0.696250000000     0.320900000000     0          
H15      H      0.068900000000     0.696250000000     0.820900000000     0          
H15      H      0.568900000000     0.196250000000     0.320900000000     0          
H15      H      0.568900000000     0.196250000000     0.820900000000     0          
H15      H      0.568900000000     0.696250000000     0.320900000000     0          
H15      H      0.568900000000     0.696250000000     0.820900000000     0          
N11      N      0.242300000000     0.453550000000     0.091200000000     0          
N11      N      0.242300000000     0.453550000000     0.591200000000     0          
N11      N      0.242300000000     0.953550000000     0.091200000000     0          
N11      N      0.242300000000     0.953550000000     0.591200000000     0          
N11      N      0.742300000000     0.453550000000     0.091200000000     0          
N11      N      0.742300000000     0.453550000000     0.591200000000     0          
N11      N      0.742300000000     0.953550000000     0.091200000000     0          
N11      N      0.742300000000     0.953550000000     0.591200000000     0          
N12      N      0.209000000000     0.432650000000     0.093500000000     0          
N12      N      0.209000000000     0.432650000000     0.593500000000     0          
N12      N      0.209000000000     0.932650000000     0.093500000000     0          
N12      N      0.209000000000     0.932650000000     0.593500000000     0          
N12      N      0.709000000000     0.432650000000     0.093500000000     0          
N12      N      0.709000000000     0.432650000000     0.593500000000     0          
N12      N      0.709000000000     0.932650000000     0.093500000000     0          
N12      N      0.709000000000     0.932650000000     0.593500000000     0          
H16      H      0.309050000000     0.435050000000     0.027600000000     0          
H16      H      0.309050000000     0.435050000000     0.527600000000     0          
H16      H      0.309050000000     0.935050000000     0.027600000000     0          
H16      H      0.309050000000     0.935050000000     0.527600000000     0          
H16      H      0.809050000000     0.435050000000     0.027600000000     0          
H16      H      0.809050000000     0.435050000000     0.527600000000     0          
H16      H      0.809050000000     0.935050000000     0.027600000000     0          
H16      H      0.809050000000     0.935050000000     0.527600000000     0          
H17      H      0.300700000000     0.477450000000     0.042750000000     0          
H17      H      0.300700000000     0.477450000000     0.542750000000     0          
H17      H      0.300700000000     0.977450000000     0.042750000000     0          
H17      H      0.300700000000     0.977450000000     0.542750000000     0          
H17      H      0.800700000000     0.477450000000     0.042750000000     0          
H17      H      0.800700000000     0.477450000000     0.542750000000     0          
H17      H      0.800700000000     0.977450000000     0.042750000000     0          
H17      H      0.800700000000     0.977450000000     0.542750000000     0          
H18      H      0.318900000000     0.446250000000     0.070900000000     0          
H18      H      0.318900000000     0.446250000000     0.570900000000     0          
H18      H      0.318900000000     0.946250000000     0.070900000000     0          
H18      H      0.318900000000     0.946250000000     0.570900000000     0          
H18      H      0.818900000000     0.446250000000     0.070900000000     0          
H18      H      0.818900000000     0.446250000000     0.570900000000     0          
H18      H      0.818900000000     0.946250000000     0.070900000000     0          
H18      H      0.818900000000     0.946250000000     0.570900000000     0          
N13      N      0.007700000000     0.296450000000     0.341200000000     0          
N13      N      0.007700000000     0.296450000000     0.841200000000     0          
N13      N      0.007700000000     0.796450000000     0.341200000000     0          
N13      N      0.007700000000     0.796450000000     0.841200000000     0          
N13      N      0.507700000000     0.296450000000     0.341200000000     0          
N13      N      0.507700000000     0.296450000000     0.841200000000     0          
N13      N      0.507700000000     0.796450000000     0.341200000000     0          
N13      N      0.507700000000     0.796450000000     0.841200000000     0          
N14      N      0.041000000000     0.317350000000     0.343500000000     0          
N14      N      0.041000000000     0.317350000000     0.843500000000     0          
N14      N      0.041000000000     0.817350000000     0.343500000000     0          
N14      N      0.041000000000     0.817350000000     0.843500000000     0          
N14      N      0.541000000000     0.317350000000     0.343500000000     0          
N14      N      0.541000000000     0.317350000000     0.843500000000     0          
N14      N      0.541000000000     0.817350000000     0.343500000000     0          
N14      N      0.541000000000     0.817350000000     0.843500000000     0          
H19      H      0.440950000000     0.314950000000     0.277600000000     0          
H19      H      0.440950000000     0.314950000000     0.777600000000     0          
H19      H      0.440950000000     0.814950000000     0.277600000000     0          
H19      H      0.440950000000     0.814950000000     0.777600000000     0          
H19      H      0.940950000000     0.314950000000     0.277600000000     0          
H19      H      0.940950000000     0.314950000000     0.777600000000     0          
H19      H      0.940950000000     0.814950000000     0.277600000000     0          
H19      H      0.940950000000     0.814950000000     0.777600000000     0          
H20      H      0.449300000000     0.272550000000     0.292750000000     0          
H20      H      0.449300000000     0.272550000000     0.792750000000     0          
H20      H      0.449300000000     0.772550000000     0.292750000000     0          
H20      H      0.449300000000     0.772550000000     0.792750000000     0          
H20      H      0.949300000000     0.272550000000     0.292750000000     0          
H20      H      0.949300000000     0.272550000000     0.792750000000     0          
H20      H      0.949300000000     0.772550000000     0.292750000000     0          
H20      H      0.949300000000     0.772550000000     0.792750000000     0          
H21      H      0.431100000000     0.303750000000     0.320900000000     0          
H21      H      0.431100000000     0.303750000000     0.820900000000     0          
H21      H      0.431100000000     0.803750000000     0.320900000000     0          
H21      H      0.431100000000     0.803750000000     0.820900000000     0          
H21      H      0.931100000000     0.303750000000     0.320900000000     0          
H21      H      0.931100000000     0.303750000000     0.820900000000     0          
H21      H      0.931100000000     0.803750000000     0.320900000000     0          
H21      H      0.931100000000     0.803750000000     0.820900000000     0          
N15      N      0.257700000000     0.046450000000     0.091200000000     0          
N15      N      0.257700000000     0.046450000000     0.591200000000     0          
N15      N      0.257700000000     0.546450000000     0.091200000000     0          
N15      N      0.257700000000     0.546450000000     0.591200000000     0          
N15      N      0.757700000000     0.046450000000     0.091200000000     0          
N15      N      0.757700000000     0.046450000000     0.591200000000     0          
N15      N      0.757700000000     0.546450000000     0.091200000000     0          
N15      N      0.757700000000     0.546450000000     0.591200000000     0          
N16      N      0.291000000000     0.067350000000     0.093500000000     0          
N16      N      0.291000000000     0.067350000000     0.593500000000     0          
N16      N      0.291000000000     0.567350000000     0.093500000000     0          
N16      N      0.291000000000     0.567350000000     0.593500000000     0          
N16      N      0.791000000000     0.067350000000     0.093500000000     0          
N16      N      0.791000000000     0.067350000000     0.593500000000     0          
N16      N      0.791000000000     0.567350000000     0.093500000000     0          
N16      N      0.791000000000     0.567350000000     0.593500000000     0          
H22      H      0.190950000000     0.064950000000     0.027600000000     0          
H22      H      0.190950000000     0.064950000000     0.527600000000     0          
H22      H      0.190950000000     0.564950000000     0.027600000000     0          
H22      H      0.190950000000     0.564950000000     0.527600000000     0          
H22      H      0.690950000000     0.064950000000     0.027600000000     0          
H22      H      0.690950000000     0.064950000000     0.527600000000     0          
H22      H      0.690950000000     0.564950000000     0.027600000000     0          
H22      H      0.690950000000     0.564950000000     0.527600000000     0          
H23      H      0.199300000000     0.022550000000     0.042750000000     0          
H23      H      0.199300000000     0.022550000000     0.542750000000     0          
H23      H      0.199300000000     0.522550000000     0.042750000000     0          
H23      H      0.199300000000     0.522550000000     0.542750000000     0          
H23      H      0.699300000000     0.022550000000     0.042750000000     0          
H23      H      0.699300000000     0.022550000000     0.542750000000     0          
H23      H      0.699300000000     0.522550000000     0.042750000000     0          
H23      H      0.699300000000     0.522550000000     0.542750000000     0          
H24      H      0.181100000000     0.053750000000     0.070900000000     0          
H24      H      0.181100000000     0.053750000000     0.570900000000     0          
H24      H      0.181100000000     0.553750000000     0.070900000000     0          
H24      H      0.181100000000     0.553750000000     0.570900000000     0          
H24      H      0.681100000000     0.053750000000     0.070900000000     0          
H24      H      0.681100000000     0.053750000000     0.570900000000     0          
H24      H      0.681100000000     0.553750000000     0.070900000000     0          
H24      H      0.681100000000     0.553750000000     0.570900000000     0          
N17      N      0.158800000000     0.007700000000     0.203550000000     0          
N17      N      0.158800000000     0.007700000000     0.703550000000     0          
N17      N      0.158800000000     0.507700000000     0.203550000000     0          
N17      N      0.158800000000     0.507700000000     0.703550000000     0          
N17      N      0.658800000000     0.007700000000     0.203550000000     0          
N17      N      0.658800000000     0.007700000000     0.703550000000     0          
N17      N      0.658800000000     0.507700000000     0.203550000000     0          
N17      N      0.658800000000     0.507700000000     0.703550000000     0          
N18      N      0.156500000000     0.041000000000     0.182650000000     0          
N18      N      0.156500000000     0.041000000000     0.682650000000     0          
N18      N      0.156500000000     0.541000000000     0.182650000000     0          
N18      N      0.156500000000     0.541000000000     0.682650000000     0          
N18      N      0.656500000000     0.041000000000     0.182650000000     0          
N18      N      0.656500000000     0.041000000000     0.682650000000     0          
N18      N      0.656500000000     0.541000000000     0.182650000000     0          
N18      N      0.656500000000     0.541000000000     0.682650000000     0          
H25      H      0.222400000000     0.440950000000     0.185050000000     0          
H25      H      0.222400000000     0.440950000000     0.685050000000     0          
H25      H      0.222400000000     0.940950000000     0.185050000000     0          
H25      H      0.222400000000     0.940950000000     0.685050000000     0          
H25      H      0.722400000000     0.440950000000     0.185050000000     0          
H25      H      0.722400000000     0.440950000000     0.685050000000     0          
H25      H      0.722400000000     0.940950000000     0.185050000000     0          
H25      H      0.722400000000     0.940950000000     0.685050000000     0          
H26      H      0.207250000000     0.449300000000     0.227450000000     0          
H26      H      0.207250000000     0.449300000000     0.727450000000     0          
H26      H      0.207250000000     0.949300000000     0.227450000000     0          
H26      H      0.207250000000     0.949300000000     0.727450000000     0          
H26      H      0.707250000000     0.449300000000     0.227450000000     0          
H26      H      0.707250000000     0.449300000000     0.727450000000     0          
H26      H      0.707250000000     0.949300000000     0.227450000000     0          
H26      H      0.707250000000     0.949300000000     0.727450000000     0          
H27      H      0.179100000000     0.431100000000     0.196250000000     0          
H27      H      0.179100000000     0.431100000000     0.696250000000     0          
H27      H      0.179100000000     0.931100000000     0.196250000000     0          
H27      H      0.179100000000     0.931100000000     0.696250000000     0          
H27      H      0.679100000000     0.431100000000     0.196250000000     0          
H27      H      0.679100000000     0.431100000000     0.696250000000     0          
H27      H      0.679100000000     0.931100000000     0.196250000000     0          
H27      H      0.679100000000     0.931100000000     0.696250000000     0          
N19      N      0.408800000000     0.257700000000     0.453550000000     0          
N19      N      0.408800000000     0.257700000000     0.953550000000     0          
N19      N      0.408800000000     0.757700000000     0.453550000000     0          
N19      N      0.408800000000     0.757700000000     0.953550000000     0          
N19      N      0.908800000000     0.257700000000     0.453550000000     0          
N19      N      0.908800000000     0.257700000000     0.953550000000     0          
N19      N      0.908800000000     0.757700000000     0.453550000000     0          
N19      N      0.908800000000     0.757700000000     0.953550000000     0          
N20      N      0.406500000000     0.291000000000     0.432650000000     0          
N20      N      0.406500000000     0.291000000000     0.932650000000     0          
N20      N      0.406500000000     0.791000000000     0.432650000000     0          
N20      N      0.406500000000     0.791000000000     0.932650000000     0          
N20      N      0.906500000000     0.291000000000     0.432650000000     0          
N20      N      0.906500000000     0.291000000000     0.932650000000     0          
N20      N      0.906500000000     0.791000000000     0.432650000000     0          
N20      N      0.906500000000     0.791000000000     0.932650000000     0          
H28      H      0.472400000000     0.190950000000     0.435050000000     0          
H28      H      0.472400000000     0.190950000000     0.935050000000     0          
H28      H      0.472400000000     0.690950000000     0.435050000000     0          
H28      H      0.472400000000     0.690950000000     0.935050000000     0          
H28      H      0.972400000000     0.190950000000     0.435050000000     0          
H28      H      0.972400000000     0.190950000000     0.935050000000     0          
H28      H      0.972400000000     0.690950000000     0.435050000000     0          
H28      H      0.972400000000     0.690950000000     0.935050000000     0          
H29      H      0.457250000000     0.199300000000     0.477450000000     0          
H29      H      0.457250000000     0.199300000000     0.977450000000     0          
H29      H      0.457250000000     0.699300000000     0.477450000000     0          
H29      H      0.457250000000     0.699300000000     0.977450000000     0          
H29      H      0.957250000000     0.199300000000     0.477450000000     0          
H29      H      0.957250000000     0.199300000000     0.977450000000     0          
H29      H      0.957250000000     0.699300000000     0.477450000000     0          
H29      H      0.957250000000     0.699300000000     0.977450000000     0          
H30      H      0.429100000000     0.181100000000     0.446250000000     0          
H30      H      0.429100000000     0.181100000000     0.946250000000     0          
H30      H      0.429100000000     0.681100000000     0.446250000000     0          
H30      H      0.429100000000     0.681100000000     0.946250000000     0          
H30      H      0.929100000000     0.181100000000     0.446250000000     0          
H30      H      0.929100000000     0.181100000000     0.946250000000     0          
H30      H      0.929100000000     0.681100000000     0.446250000000     0          
H30      H      0.929100000000     0.681100000000     0.946250000000     0          
N21      N      0.158800000000     0.492300000000     0.296450000000     0          
N21      N      0.158800000000     0.492300000000     0.796450000000     0          
N21      N      0.158800000000     0.992300000000     0.296450000000     0          
N21      N      0.158800000000     0.992300000000     0.796450000000     0          
N21      N      0.658800000000     0.492300000000     0.296450000000     0          
N21      N      0.658800000000     0.492300000000     0.796450000000     0          
N21      N      0.658800000000     0.992300000000     0.296450000000     0          
N21      N      0.658800000000     0.992300000000     0.796450000000     0          
N22      N      0.156500000000     0.459000000000     0.317350000000     0          
N22      N      0.156500000000     0.459000000000     0.817350000000     0          
N22      N      0.156500000000     0.959000000000     0.317350000000     0          
N22      N      0.156500000000     0.959000000000     0.817350000000     0          
N22      N      0.656500000000     0.459000000000     0.317350000000     0          
N22      N      0.656500000000     0.459000000000     0.817350000000     0          
N22      N      0.656500000000     0.959000000000     0.317350000000     0          
N22      N      0.656500000000     0.959000000000     0.817350000000     0          
H31      H      0.222400000000     0.059050000000     0.314950000000     0          
H31      H      0.222400000000     0.059050000000     0.814950000000     0          
H31      H      0.222400000000     0.559050000000     0.314950000000     0          
H31      H      0.222400000000     0.559050000000     0.814950000000     0          
H31      H      0.722400000000     0.059050000000     0.314950000000     0          
H31      H      0.722400000000     0.059050000000     0.814950000000     0          
H31      H      0.722400000000     0.559050000000     0.314950000000     0          
H31      H      0.722400000000     0.559050000000     0.814950000000     0          
H32      H      0.207250000000     0.050700000000     0.272550000000     0          
H32      H      0.207250000000     0.050700000000     0.772550000000     0          
H32      H      0.207250000000     0.550700000000     0.272550000000     0          
H32      H      0.207250000000     0.550700000000     0.772550000000     0          
H32      H      0.707250000000     0.050700000000     0.272550000000     0          
H32      H      0.707250000000     0.050700000000     0.772550000000     0          
H32      H      0.707250000000     0.550700000000     0.272550000000     0          
H32      H      0.707250000000     0.550700000000     0.772550000000     0          
H33      H      0.179100000000     0.068900000000     0.303750000000     0          
H33      H      0.179100000000     0.068900000000     0.803750000000     0          
H33      H      0.179100000000     0.568900000000     0.303750000000     0          
H33      H      0.179100000000     0.568900000000     0.803750000000     0          
H33      H      0.679100000000     0.068900000000     0.303750000000     0          
H33      H      0.679100000000     0.068900000000     0.803750000000     0          
H33      H      0.679100000000     0.568900000000     0.303750000000     0          
H33      H      0.679100000000     0.568900000000     0.803750000000     0          
N23      N      0.408800000000     0.242300000000     0.046450000000     0          
N23      N      0.408800000000     0.242300000000     0.546450000000     0          
N23      N      0.408800000000     0.742300000000     0.046450000000     0          
N23      N      0.408800000000     0.742300000000     0.546450000000     0          
N23      N      0.908800000000     0.242300000000     0.046450000000     0          
N23      N      0.908800000000     0.242300000000     0.546450000000     0          
N23      N      0.908800000000     0.742300000000     0.046450000000     0          
N23      N      0.908800000000     0.742300000000     0.546450000000     0          
N24      N      0.406500000000     0.209000000000     0.067350000000     0          
N24      N      0.406500000000     0.209000000000     0.567350000000     0          
N24      N      0.406500000000     0.709000000000     0.067350000000     0          
N24      N      0.406500000000     0.709000000000     0.567350000000     0          
N24      N      0.906500000000     0.209000000000     0.067350000000     0          
N24      N      0.906500000000     0.209000000000     0.567350000000     0          
N24      N      0.906500000000     0.709000000000     0.067350000000     0          
N24      N      0.906500000000     0.709000000000     0.567350000000     0          
H34      H      0.472400000000     0.309050000000     0.064950000000     0          
H34      H      0.472400000000     0.309050000000     0.564950000000     0          
H34      H      0.472400000000     0.809050000000     0.064950000000     0          
H34      H      0.472400000000     0.809050000000     0.564950000000     0          
H34      H      0.972400000000     0.309050000000     0.064950000000     0          
H34      H      0.972400000000     0.309050000000     0.564950000000     0          
H34      H      0.972400000000     0.809050000000     0.064950000000     0          
H34      H      0.972400000000     0.809050000000     0.564950000000     0          
H35      H      0.457250000000     0.300700000000     0.022550000000     0          
H35      H      0.457250000000     0.300700000000     0.522550000000     0          
H35      H      0.457250000000     0.800700000000     0.022550000000     0          
H35      H      0.457250000000     0.800700000000     0.522550000000     0          
H35      H      0.957250000000     0.300700000000     0.022550000000     0          
H35      H      0.957250000000     0.300700000000     0.522550000000     0          
H35      H      0.957250000000     0.800700000000     0.022550000000     0          
H35      H      0.957250000000     0.800700000000     0.522550000000     0          
H36      H      0.429100000000     0.318900000000     0.053750000000     0          
H36      H      0.429100000000     0.318900000000     0.553750000000     0          
H36      H      0.429100000000     0.818900000000     0.053750000000     0          
H36      H      0.429100000000     0.818900000000     0.553750000000     0          
H36      H      0.929100000000     0.318900000000     0.053750000000     0          
H36      H      0.929100000000     0.318900000000     0.553750000000     0          
H36      H      0.929100000000     0.818900000000     0.053750000000     0          
H36      H      0.929100000000     0.818900000000     0.553750000000     0          
N25      N      0.341200000000     0.492300000000     0.203550000000     0          
N25      N      0.341200000000     0.492300000000     0.703550000000     0          
N25      N      0.341200000000     0.992300000000     0.203550000000     0          
N25      N      0.341200000000     0.992300000000     0.703550000000     0          
N25      N      0.841200000000     0.492300000000     0.203550000000     0          
N25      N      0.841200000000     0.492300000000     0.703550000000     0          
N25      N      0.841200000000     0.992300000000     0.203550000000     0          
N25      N      0.841200000000     0.992300000000     0.703550000000     0          
N26      N      0.343500000000     0.459000000000     0.182650000000     0          
N26      N      0.343500000000     0.459000000000     0.682650000000     0          
N26      N      0.343500000000     0.959000000000     0.182650000000     0          
N26      N      0.343500000000     0.959000000000     0.682650000000     0          
N26      N      0.843500000000     0.459000000000     0.182650000000     0          
N26      N      0.843500000000     0.459000000000     0.682650000000     0          
N26      N      0.843500000000     0.959000000000     0.182650000000     0          
N26      N      0.843500000000     0.959000000000     0.682650000000     0          
H37      H      0.277600000000     0.059050000000     0.185050000000     0          
H37      H      0.277600000000     0.059050000000     0.685050000000     0          
H37      H      0.277600000000     0.559050000000     0.185050000000     0          
H37      H      0.277600000000     0.559050000000     0.685050000000     0          
H37      H      0.777600000000     0.059050000000     0.185050000000     0          
H37      H      0.777600000000     0.059050000000     0.685050000000     0          
H37      H      0.777600000000     0.559050000000     0.185050000000     0          
H37      H      0.777600000000     0.559050000000     0.685050000000     0          
H38      H      0.292750000000     0.050700000000     0.227450000000     0          
H38      H      0.292750000000     0.050700000000     0.727450000000     0          
H38      H      0.292750000000     0.550700000000     0.227450000000     0          
H38      H      0.292750000000     0.550700000000     0.727450000000     0          
H38      H      0.792750000000     0.050700000000     0.227450000000     0          
H38      H      0.792750000000     0.050700000000     0.727450000000     0          
H38      H      0.792750000000     0.550700000000     0.227450000000     0          
H38      H      0.792750000000     0.550700000000     0.727450000000     0          
H39      H      0.320900000000     0.068900000000     0.196250000000     0          
H39      H      0.320900000000     0.068900000000     0.696250000000     0          
H39      H      0.320900000000     0.568900000000     0.196250000000     0          
H39      H      0.320900000000     0.568900000000     0.696250000000     0          
H39      H      0.820900000000     0.068900000000     0.196250000000     0          
H39      H      0.820900000000     0.068900000000     0.696250000000     0          
H39      H      0.820900000000     0.568900000000     0.196250000000     0          
H39      H      0.820900000000     0.568900000000     0.696250000000     0          
N27      N      0.091200000000     0.242300000000     0.453550000000     0          
N27      N      0.091200000000     0.242300000000     0.953550000000     0          
N27      N      0.091200000000     0.742300000000     0.453550000000     0          
N27      N      0.091200000000     0.742300000000     0.953550000000     0          
N27      N      0.591200000000     0.242300000000     0.453550000000     0          
N27      N      0.591200000000     0.242300000000     0.953550000000     0          
N27      N      0.591200000000     0.742300000000     0.453550000000     0          
N27      N      0.591200000000     0.742300000000     0.953550000000     0          
N28      N      0.093500000000     0.209000000000     0.432650000000     0          
N28      N      0.093500000000     0.209000000000     0.932650000000     0          
N28      N      0.093500000000     0.709000000000     0.432650000000     0          
N28      N      0.093500000000     0.709000000000     0.932650000000     0          
N28      N      0.593500000000     0.209000000000     0.432650000000     0          
N28      N      0.593500000000     0.209000000000     0.932650000000     0          
N28      N      0.593500000000     0.709000000000     0.432650000000     0          
N28      N      0.593500000000     0.709000000000     0.932650000000     0          
H40      H      0.027600000000     0.309050000000     0.435050000000     0          
H40      H      0.027600000000     0.309050000000     0.935050000000     0          
H40      H      0.027600000000     0.809050000000     0.435050000000     0          
H40      H      0.027600000000     0.809050000000     0.935050000000     0          
H40      H      0.527600000000     0.309050000000     0.435050000000     0          
H40      H      0.527600000000     0.309050000000     0.935050000000     0          
H40      H      0.527600000000     0.809050000000     0.435050000000     0          
H40      H      0.527600000000     0.809050000000     0.935050000000     0          
H41      H      0.042750000000     0.300700000000     0.477450000000     0          
H41      H      0.042750000000     0.300700000000     0.977450000000     0          
H41      H      0.042750000000     0.800700000000     0.477450000000     0          
H41      H      0.042750000000     0.800700000000     0.977450000000     0          
H41      H      0.542750000000     0.300700000000     0.477450000000     0          
H41      H      0.542750000000     0.300700000000     0.977450000000     0          
H41      H      0.542750000000     0.800700000000     0.477450000000     0          
H41      H      0.542750000000     0.800700000000     0.977450000000     0          
H42      H      0.070900000000     0.318900000000     0.446250000000     0          
H42      H      0.070900000000     0.318900000000     0.946250000000     0          
H42      H      0.070900000000     0.818900000000     0.446250000000     0          
H42      H      0.070900000000     0.818900000000     0.946250000000     0          
H42      H      0.570900000000     0.318900000000     0.446250000000     0          
H42      H      0.570900000000     0.318900000000     0.946250000000     0          
H42      H      0.570900000000     0.818900000000     0.446250000000     0          
H42      H      0.570900000000     0.818900000000     0.946250000000     0          
N29      N      0.341200000000     0.007700000000     0.296450000000     0          
N29      N      0.341200000000     0.007700000000     0.796450000000     0          
N29      N      0.341200000000     0.507700000000     0.296450000000     0          
N29      N      0.341200000000     0.507700000000     0.796450000000     0          
N29      N      0.841200000000     0.007700000000     0.296450000000     0          
N29      N      0.841200000000     0.007700000000     0.796450000000     0          
N29      N      0.841200000000     0.507700000000     0.296450000000     0          
N29      N      0.841200000000     0.507700000000     0.796450000000     0          
N30      N      0.343500000000     0.041000000000     0.317350000000     0          
N30      N      0.343500000000     0.041000000000     0.817350000000     0          
N30      N      0.343500000000     0.541000000000     0.317350000000     0          
N30      N      0.343500000000     0.541000000000     0.817350000000     0          
N30      N      0.843500000000     0.041000000000     0.317350000000     0          
N30      N      0.843500000000     0.041000000000     0.817350000000     0          
N30      N      0.843500000000     0.541000000000     0.317350000000     0          
N30      N      0.843500000000     0.541000000000     0.817350000000     0          
H43      H      0.277600000000     0.440950000000     0.314950000000     0          
H43      H      0.277600000000     0.440950000000     0.814950000000     0          
H43      H      0.277600000000     0.940950000000     0.314950000000     0          
H43      H      0.277600000000     0.940950000000     0.814950000000     0          
H43      H      0.777600000000     0.440950000000     0.314950000000     0          
H43      H      0.777600000000     0.440950000000     0.814950000000     0          
H43      H      0.777600000000     0.940950000000     0.314950000000     0          
H43      H      0.777600000000     0.940950000000     0.814950000000     0          
H44      H      0.292750000000     0.449300000000     0.272550000000     0          
H44      H      0.292750000000     0.449300000000     0.772550000000     0          
H44      H      0.292750000000     0.949300000000     0.272550000000     0          
H44      H      0.292750000000     0.949300000000     0.772550000000     0          
H44      H      0.792750000000     0.449300000000     0.272550000000     0          
H44      H      0.792750000000     0.449300000000     0.772550000000     0          
H44      H      0.792750000000     0.949300000000     0.272550000000     0          
H44      H      0.792750000000     0.949300000000     0.772550000000     0          
H45      H      0.320900000000     0.431100000000     0.303750000000     0          
H45      H      0.320900000000     0.431100000000     0.803750000000     0          
H45      H      0.320900000000     0.931100000000     0.303750000000     0          
H45      H      0.320900000000     0.931100000000     0.803750000000     0          
H45      H      0.820900000000     0.431100000000     0.303750000000     0          
H45      H      0.820900000000     0.431100000000     0.803750000000     0          
H45      H      0.820900000000     0.931100000000     0.303750000000     0          
H45      H      0.820900000000     0.931100000000     0.803750000000     0          
N31      N      0.091200000000     0.257700000000     0.046450000000     0          
N31      N      0.091200000000     0.257700000000     0.546450000000     0          
N31      N      0.091200000000     0.757700000000     0.046450000000     0          
N31      N      0.091200000000     0.757700000000     0.546450000000     0          
N31      N      0.591200000000     0.257700000000     0.046450000000     0          
N31      N      0.591200000000     0.257700000000     0.546450000000     0          
N31      N      0.591200000000     0.757700000000     0.046450000000     0          
N31      N      0.591200000000     0.757700000000     0.546450000000     0          
N32      N      0.093500000000     0.291000000000     0.067350000000     0          
N32      N      0.093500000000     0.291000000000     0.567350000000     0          
N32      N      0.093500000000     0.791000000000     0.067350000000     0          
N32      N      0.093500000000     0.791000000000     0.567350000000     0          
N32      N      0.593500000000     0.291000000000     0.067350000000     0          
N32      N      0.593500000000     0.291000000000     0.567350000000     0          
N32      N      0.593500000000     0.791000000000     0.067350000000     0          
N32      N      0.593500000000     0.791000000000     0.567350000000     0          
H46      H      0.027600000000     0.190950000000     0.064950000000     0          
H46      H      0.027600000000     0.190950000000     0.564950000000     0          
H46      H      0.027600000000     0.690950000000     0.064950000000     0          
H46      H      0.027600000000     0.690950000000     0.564950000000     0          
H46      H      0.527600000000     0.190950000000     0.064950000000     0          
H46      H      0.527600000000     0.190950000000     0.564950000000     0          
H46      H      0.527600000000     0.690950000000     0.064950000000     0          
H46      H      0.527600000000     0.690950000000     0.564950000000     0          
H47      H      0.042750000000     0.199300000000     0.022550000000     0          
H47      H      0.042750000000     0.199300000000     0.522550000000     0          
H47      H      0.042750000000     0.699300000000     0.022550000000     0          
H47      H      0.042750000000     0.699300000000     0.522550000000     0          
H47      H      0.542750000000     0.199300000000     0.022550000000     0          
H47      H      0.542750000000     0.199300000000     0.522550000000     0          
H47      H      0.542750000000     0.699300000000     0.022550000000     0          
H47      H      0.542750000000     0.699300000000     0.522550000000     0          
H48      H      0.070900000000     0.181100000000     0.053750000000     0          
H48      H      0.070900000000     0.181100000000     0.553750000000     0          
H48      H      0.070900000000     0.681100000000     0.053750000000     0          
H48      H      0.070900000000     0.681100000000     0.553750000000     0          
H48      H      0.570900000000     0.181100000000     0.053750000000     0          
H48      H      0.570900000000     0.181100000000     0.553750000000     0          
H48      H      0.570900000000     0.681100000000     0.053750000000     0          
H48      H      0.570900000000     0.681100000000     0.553750000000     0          
N33      N      0.203550000000     0.158800000000     0.007700000000     0          
N33      N      0.203550000000     0.158800000000     0.507700000000     0          
N33      N      0.203550000000     0.658800000000     0.007700000000     0          
N33      N      0.203550000000     0.658800000000     0.507700000000     0          
N33      N      0.703550000000     0.158800000000     0.007700000000     0          
N33      N      0.703550000000     0.158800000000     0.507700000000     0          
N33      N      0.703550000000     0.658800000000     0.007700000000     0          
N33      N      0.703550000000     0.658800000000     0.507700000000     0          
N34      N      0.182650000000     0.156500000000     0.041000000000     0          
N34      N      0.182650000000     0.156500000000     0.541000000000     0          
N34      N      0.182650000000     0.656500000000     0.041000000000     0          
N34      N      0.182650000000     0.656500000000     0.541000000000     0          
N34      N      0.682650000000     0.156500000000     0.041000000000     0          
N34      N      0.682650000000     0.156500000000     0.541000000000     0          
N34      N      0.682650000000     0.656500000000     0.041000000000     0          
N34      N      0.682650000000     0.656500000000     0.541000000000     0          
H49      H      0.185050000000     0.222400000000     0.440950000000     0          
H49      H      0.185050000000     0.222400000000     0.940950000000     0          
H49      H      0.185050000000     0.722400000000     0.440950000000     0          
H49      H      0.185050000000     0.722400000000     0.940950000000     0          
H49      H      0.685050000000     0.222400000000     0.440950000000     0          
H49      H      0.685050000000     0.222400000000     0.940950000000     0          
H49      H      0.685050000000     0.722400000000     0.440950000000     0          
H49      H      0.685050000000     0.722400000000     0.940950000000     0          
H50      H      0.227450000000     0.207250000000     0.449300000000     0          
H50      H      0.227450000000     0.207250000000     0.949300000000     0          
H50      H      0.227450000000     0.707250000000     0.449300000000     0          
H50      H      0.227450000000     0.707250000000     0.949300000000     0          
H50      H      0.727450000000     0.207250000000     0.449300000000     0          
H50      H      0.727450000000     0.207250000000     0.949300000000     0          
H50      H      0.727450000000     0.707250000000     0.449300000000     0          
H50      H      0.727450000000     0.707250000000     0.949300000000     0          
H51      H      0.196250000000     0.179100000000     0.431100000000     0          
H51      H      0.196250000000     0.179100000000     0.931100000000     0          
H51      H      0.196250000000     0.679100000000     0.431100000000     0          
H51      H      0.196250000000     0.679100000000     0.931100000000     0          
H51      H      0.696250000000     0.179100000000     0.431100000000     0          
H51      H      0.696250000000     0.179100000000     0.931100000000     0          
H51      H      0.696250000000     0.679100000000     0.431100000000     0          
H51      H      0.696250000000     0.679100000000     0.931100000000     0          
N35      N      0.453550000000     0.408800000000     0.257700000000     0          
N35      N      0.453550000000     0.408800000000     0.757700000000     0          
N35      N      0.453550000000     0.908800000000     0.257700000000     0          
N35      N      0.453550000000     0.908800000000     0.757700000000     0          
N35      N      0.953550000000     0.408800000000     0.257700000000     0          
N35      N      0.953550000000     0.408800000000     0.757700000000     0          
N35      N      0.953550000000     0.908800000000     0.257700000000     0          
N35      N      0.953550000000     0.908800000000     0.757700000000     0          
N36      N      0.432650000000     0.406500000000     0.291000000000     0          
N36      N      0.432650000000     0.406500000000     0.791000000000     0          
N36      N      0.432650000000     0.906500000000     0.291000000000     0          
N36      N      0.432650000000     0.906500000000     0.791000000000     0          
N36      N      0.932650000000     0.406500000000     0.291000000000     0          
N36      N      0.932650000000     0.406500000000     0.791000000000     0          
N36      N      0.932650000000     0.906500000000     0.291000000000     0          
N36      N      0.932650000000     0.906500000000     0.791000000000     0          
H52      H      0.435050000000     0.472400000000     0.190950000000     0          
H52      H      0.435050000000     0.472400000000     0.690950000000     0          
H52      H      0.435050000000     0.972400000000     0.190950000000     0          
H52      H      0.435050000000     0.972400000000     0.690950000000     0          
H52      H      0.935050000000     0.472400000000     0.190950000000     0          
H52      H      0.935050000000     0.472400000000     0.690950000000     0          
H52      H      0.935050000000     0.972400000000     0.190950000000     0          
H52      H      0.935050000000     0.972400000000     0.690950000000     0          
H53      H      0.477450000000     0.457250000000     0.199300000000     0          
H53      H      0.477450000000     0.457250000000     0.699300000000     0          
H53      H      0.477450000000     0.957250000000     0.199300000000     0          
H53      H      0.477450000000     0.957250000000     0.699300000000     0          
H53      H      0.977450000000     0.457250000000     0.199300000000     0          
H53      H      0.977450000000     0.457250000000     0.699300000000     0          
H53      H      0.977450000000     0.957250000000     0.199300000000     0          
H53      H      0.977450000000     0.957250000000     0.699300000000     0          
H54      H      0.446250000000     0.429100000000     0.181100000000     0          
H54      H      0.446250000000     0.429100000000     0.681100000000     0          
H54      H      0.446250000000     0.929100000000     0.181100000000     0          
H54      H      0.446250000000     0.929100000000     0.681100000000     0          
H54      H      0.946250000000     0.429100000000     0.181100000000     0          
H54      H      0.946250000000     0.429100000000     0.681100000000     0          
H54      H      0.946250000000     0.929100000000     0.181100000000     0          
H54      H      0.946250000000     0.929100000000     0.681100000000     0          
N37      N      0.296450000000     0.158800000000     0.492300000000     0          
N37      N      0.296450000000     0.158800000000     0.992300000000     0          
N37      N      0.296450000000     0.658800000000     0.492300000000     0          
N37      N      0.296450000000     0.658800000000     0.992300000000     0          
N37      N      0.796450000000     0.158800000000     0.492300000000     0          
N37      N      0.796450000000     0.158800000000     0.992300000000     0          
N37      N      0.796450000000     0.658800000000     0.492300000000     0          
N37      N      0.796450000000     0.658800000000     0.992300000000     0          
N38      N      0.317350000000     0.156500000000     0.459000000000     0          
N38      N      0.317350000000     0.156500000000     0.959000000000     0          
N38      N      0.317350000000     0.656500000000     0.459000000000     0          
N38      N      0.317350000000     0.656500000000     0.959000000000     0          
N38      N      0.817350000000     0.156500000000     0.459000000000     0          
N38      N      0.817350000000     0.156500000000     0.959000000000     0          
N38      N      0.817350000000     0.656500000000     0.459000000000     0          
N38      N      0.817350000000     0.656500000000     0.959000000000     0          
H55      H      0.314950000000     0.222400000000     0.059050000000     0          
H55      H      0.314950000000     0.222400000000     0.559050000000     0          
H55      H      0.314950000000     0.722400000000     0.059050000000     0          
H55      H      0.314950000000     0.722400000000     0.559050000000     0          
H55      H      0.814950000000     0.222400000000     0.059050000000     0          
H55      H      0.814950000000     0.222400000000     0.559050000000     0          
H55      H      0.814950000000     0.722400000000     0.059050000000     0          
H55      H      0.814950000000     0.722400000000     0.559050000000     0          
H56      H      0.272550000000     0.207250000000     0.050700000000     0          
H56      H      0.272550000000     0.207250000000     0.550700000000     0          
H56      H      0.272550000000     0.707250000000     0.050700000000     0          
H56      H      0.272550000000     0.707250000000     0.550700000000     0          
H56      H      0.772550000000     0.207250000000     0.050700000000     0          
H56      H      0.772550000000     0.207250000000     0.550700000000     0          
H56      H      0.772550000000     0.707250000000     0.050700000000     0          
H56      H      0.772550000000     0.707250000000     0.550700000000     0          
H57      H      0.303750000000     0.179100000000     0.068900000000     0          
H57      H      0.303750000000     0.179100000000     0.568900000000     0          
H57      H      0.303750000000     0.679100000000     0.068900000000     0          
H57      H      0.303750000000     0.679100000000     0.568900000000     0          
H57      H      0.803750000000     0.179100000000     0.068900000000     0          
H57      H      0.803750000000     0.179100000000     0.568900000000     0          
H57      H      0.803750000000     0.679100000000     0.068900000000     0          
H57      H      0.803750000000     0.679100000000     0.568900000000     0          
N39      N      0.046450000000     0.408800000000     0.242300000000     0          
N39      N      0.046450000000     0.408800000000     0.742300000000     0          
N39      N      0.046450000000     0.908800000000     0.242300000000     0          
N39      N      0.046450000000     0.908800000000     0.742300000000     0          
N39      N      0.546450000000     0.408800000000     0.242300000000     0          
N39      N      0.546450000000     0.408800000000     0.742300000000     0          
N39      N      0.546450000000     0.908800000000     0.242300000000     0          
N39      N      0.546450000000     0.908800000000     0.742300000000     0          
N40      N      0.067350000000     0.406500000000     0.209000000000     0          
N40      N      0.067350000000     0.406500000000     0.709000000000     0          
N40      N      0.067350000000     0.906500000000     0.209000000000     0          
N40      N      0.067350000000     0.906500000000     0.709000000000     0          
N40      N      0.567350000000     0.406500000000     0.209000000000     0          
N40      N      0.567350000000     0.406500000000     0.709000000000     0          
N40      N      0.567350000000     0.906500000000     0.209000000000     0          
N40      N      0.567350000000     0.906500000000     0.709000000000     0          
H58      H      0.064950000000     0.472400000000     0.309050000000     0          
H58      H      0.064950000000     0.472400000000     0.809050000000     0          
H58      H      0.064950000000     0.972400000000     0.309050000000     0          
H58      H      0.064950000000     0.972400000000     0.809050000000     0          
H58      H      0.564950000000     0.472400000000     0.309050000000     0          
H58      H      0.564950000000     0.472400000000     0.809050000000     0          
H58      H      0.564950000000     0.972400000000     0.309050000000     0          
H58      H      0.564950000000     0.972400000000     0.809050000000     0          
H59      H      0.022550000000     0.457250000000     0.300700000000     0          
H59      H      0.022550000000     0.457250000000     0.800700000000     0          
H59      H      0.022550000000     0.957250000000     0.300700000000     0          
H59      H      0.022550000000     0.957250000000     0.800700000000     0          
H59      H      0.522550000000     0.457250000000     0.300700000000     0          
H59      H      0.522550000000     0.457250000000     0.800700000000     0          
H59      H      0.522550000000     0.957250000000     0.300700000000     0          
H59      H      0.522550000000     0.957250000000     0.800700000000     0          
H60      H      0.053750000000     0.429100000000     0.318900000000     0          
H60      H      0.053750000000     0.429100000000     0.818900000000     0          
H60      H      0.053750000000     0.929100000000     0.318900000000     0          
H60      H      0.053750000000     0.929100000000     0.818900000000     0          
H60      H      0.553750000000     0.429100000000     0.318900000000     0          
H60      H      0.553750000000     0.429100000000     0.818900000000     0          
H60      H      0.553750000000     0.929100000000     0.318900000000     0          
H60      H      0.553750000000     0.929100000000     0.818900000000     0          
N41      N      0.203550000000     0.341200000000     0.492300000000     0          
N41      N      0.203550000000     0.341200000000     0.992300000000     0          
N41      N      0.203550000000     0.841200000000     0.492300000000     0          
N41      N      0.203550000000     0.841200000000     0.992300000000     0          
N41      N      0.703550000000     0.341200000000     0.492300000000     0          
N41      N      0.703550000000     0.341200000000     0.992300000000     0          
N41      N      0.703550000000     0.841200000000     0.492300000000     0          
N41      N      0.703550000000     0.841200000000     0.992300000000     0          
N42      N      0.182650000000     0.343500000000     0.459000000000     0          
N42      N      0.182650000000     0.343500000000     0.959000000000     0          
N42      N      0.182650000000     0.843500000000     0.459000000000     0          
N42      N      0.182650000000     0.843500000000     0.959000000000     0          
N42      N      0.682650000000     0.343500000000     0.459000000000     0          
N42      N      0.682650000000     0.343500000000     0.959000000000     0          
N42      N      0.682650000000     0.843500000000     0.459000000000     0          
N42      N      0.682650000000     0.843500000000     0.959000000000     0          
H61      H      0.185050000000     0.277600000000     0.059050000000     0          
H61      H      0.185050000000     0.277600000000     0.559050000000     0          
H61      H      0.185050000000     0.777600000000     0.059050000000     0          
H61      H      0.185050000000     0.777600000000     0.559050000000     0          
H61      H      0.685050000000     0.277600000000     0.059050000000     0          
H61      H      0.685050000000     0.277600000000     0.559050000000     0          
H61      H      0.685050000000     0.777600000000     0.059050000000     0          
H61      H      0.685050000000     0.777600000000     0.559050000000     0          
H62      H      0.227450000000     0.292750000000     0.050700000000     0          
H62      H      0.227450000000     0.292750000000     0.550700000000     0          
H62      H      0.227450000000     0.792750000000     0.050700000000     0          
H62      H      0.227450000000     0.792750000000     0.550700000000     0          
H62      H      0.727450000000     0.292750000000     0.050700000000     0          
H62      H      0.727450000000     0.292750000000     0.550700000000     0          
H62      H      0.727450000000     0.792750000000     0.050700000000     0          
H62      H      0.727450000000     0.792750000000     0.550700000000     0          
H63      H      0.196250000000     0.320900000000     0.068900000000     0          
H63      H      0.196250000000     0.320900000000     0.568900000000     0          
H63      H      0.196250000000     0.820900000000     0.068900000000     0          
H63      H      0.196250000000     0.820900000000     0.568900000000     0          
H63      H      0.696250000000     0.320900000000     0.068900000000     0          
H63      H      0.696250000000     0.320900000000     0.568900000000     0          
H63      H      0.696250000000     0.820900000000     0.068900000000     0          
H63      H      0.696250000000     0.820900000000     0.568900000000     0          
N43      N      0.453550000000     0.091200000000     0.242300000000     0          
N43      N      0.453550000000     0.091200000000     0.742300000000     0          
N43      N      0.453550000000     0.591200000000     0.242300000000     0          
N43      N      0.453550000000     0.591200000000     0.742300000000     0          
N43      N      0.953550000000     0.091200000000     0.242300000000     0          
N43      N      0.953550000000     0.091200000000     0.742300000000     0          
N43      N      0.953550000000     0.591200000000     0.242300000000     0          
N43      N      0.953550000000     0.591200000000     0.742300000000     0          
N44      N      0.432650000000     0.093500000000     0.209000000000     0          
N44      N      0.432650000000     0.093500000000     0.709000000000     0          
N44      N      0.432650000000     0.593500000000     0.209000000000     0          
N44      N      0.432650000000     0.593500000000     0.709000000000     0          
N44      N      0.932650000000     0.093500000000     0.209000000000     0          
N44      N      0.932650000000     0.093500000000     0.709000000000     0          
N44      N      0.932650000000     0.593500000000     0.209000000000     0          
N44      N      0.932650000000     0.593500000000     0.709000000000     0          
H64      H      0.435050000000     0.027600000000     0.309050000000     0          
H64      H      0.435050000000     0.027600000000     0.809050000000     0          
H64      H      0.435050000000     0.527600000000     0.309050000000     0          
H64      H      0.435050000000     0.527600000000     0.809050000000     0          
H64      H      0.935050000000     0.027600000000     0.309050000000     0          
H64      H      0.935050000000     0.027600000000     0.809050000000     0          
H64      H      0.935050000000     0.527600000000     0.309050000000     0          
H64      H      0.935050000000     0.527600000000     0.809050000000     0          
H65      H      0.477450000000     0.042750000000     0.300700000000     0          
H65      H      0.477450000000     0.042750000000     0.800700000000     0          
H65      H      0.477450000000     0.542750000000     0.300700000000     0          
H65      H      0.477450000000     0.542750000000     0.800700000000     0          
H65      H      0.977450000000     0.042750000000     0.300700000000     0          
H65      H      0.977450000000     0.042750000000     0.800700000000     0          
H65      H      0.977450000000     0.542750000000     0.300700000000     0          
H65      H      0.977450000000     0.542750000000     0.800700000000     0          
H66      H      0.446250000000     0.070900000000     0.318900000000     0          
H66      H      0.446250000000     0.070900000000     0.818900000000     0          
H66      H      0.446250000000     0.570900000000     0.318900000000     0          
H66      H      0.446250000000     0.570900000000     0.818900000000     0          
H66      H      0.946250000000     0.070900000000     0.318900000000     0          
H66      H      0.946250000000     0.070900000000     0.818900000000     0          
H66      H      0.946250000000     0.570900000000     0.318900000000     0          
H66      H      0.946250000000     0.570900000000     0.818900000000     0          
N45      N      0.296450000000     0.341200000000     0.007700000000     0          
N45      N      0.296450000000     0.341200000000     0.507700000000     0          
N45      N      0.296450000000     0.841200000000     0.007700000000     0          
N45      N      0.296450000000     0.841200000000     0.507700000000     0          
N45      N      0.796450000000     0.341200000000     0.007700000000     0          
N45      N      0.796450000000     0.341200000000     0.507700000000     0          
N45      N      0.796450000000     0.841200000000     0.007700000000     0          
N45      N      0.796450000000     0.841200000000     0.507700000000     0          
N46      N      0.317350000000     0.343500000000     0.041000000000     0          
N46      N      0.317350000000     0.343500000000     0.541000000000     0          
N46      N      0.317350000000     0.843500000000     0.041000000000     0          
N46      N      0.317350000000     0.843500000000     0.541000000000     0          
N46      N      0.817350000000     0.343500000000     0.041000000000     0          
N46      N      0.817350000000     0.343500000000     0.541000000000     0          
N46      N      0.817350000000     0.843500000000     0.041000000000     0          
N46      N      0.817350000000     0.843500000000     0.541000000000     0          
H67      H      0.314950000000     0.277600000000     0.440950000000     0          
H67      H      0.314950000000     0.277600000000     0.940950000000     0          
H67      H      0.314950000000     0.777600000000     0.440950000000     0          
H67      H      0.314950000000     0.777600000000     0.940950000000     0          
H67      H      0.814950000000     0.277600000000     0.440950000000     0          
H67      H      0.814950000000     0.277600000000     0.940950000000     0          
H67      H      0.814950000000     0.777600000000     0.440950000000     0          
H67      H      0.814950000000     0.777600000000     0.940950000000     0          
H68      H      0.272550000000     0.292750000000     0.449300000000     0          
H68      H      0.272550000000     0.292750000000     0.949300000000     0          
H68      H      0.272550000000     0.792750000000     0.449300000000     0          
H68      H      0.272550000000     0.792750000000     0.949300000000     0          
H68      H      0.772550000000     0.292750000000     0.449300000000     0          
H68      H      0.772550000000     0.292750000000     0.949300000000     0          
H68      H      0.772550000000     0.792750000000     0.449300000000     0          
H68      H      0.772550000000     0.792750000000     0.949300000000     0          
H69      H      0.303750000000     0.320900000000     0.431100000000     0          
H69      H      0.303750000000     0.320900000000     0.931100000000     0          
H69      H      0.303750000000     0.820900000000     0.431100000000     0          
H69      H      0.303750000000     0.820900000000     0.931100000000     0          
H69      H      0.803750000000     0.320900000000     0.431100000000     0          
H69      H      0.803750000000     0.320900000000     0.931100000000     0          
H69      H      0.803750000000     0.820900000000     0.431100000000     0          
H69      H      0.803750000000     0.820900000000     0.931100000000     0          
N47      N      0.046450000000     0.091200000000     0.257700000000     0          
N47      N      0.046450000000     0.091200000000     0.757700000000     0          
N47      N      0.046450000000     0.591200000000     0.257700000000     0          
N47      N      0.046450000000     0.591200000000     0.757700000000     0          
N47      N      0.546450000000     0.091200000000     0.257700000000     0          
N47      N      0.546450000000     0.091200000000     0.757700000000     0          
N47      N      0.546450000000     0.591200000000     0.257700000000     0          
N47      N      0.546450000000     0.591200000000     0.757700000000     0          
N48      N      0.067350000000     0.093500000000     0.291000000000     0          
N48      N      0.067350000000     0.093500000000     0.791000000000     0          
N48      N      0.067350000000     0.593500000000     0.291000000000     0          
N48      N      0.067350000000     0.593500000000     0.791000000000     0          
N48      N      0.567350000000     0.093500000000     0.291000000000     0          
N48      N      0.567350000000     0.093500000000     0.791000000000     0          
N48      N      0.567350000000     0.593500000000     0.291000000000     0          
N48      N      0.567350000000     0.593500000000     0.791000000000     0          
H70      H      0.064950000000     0.027600000000     0.190950000000     0          
H70      H      0.064950000000     0.027600000000     0.690950000000     0          
H70      H      0.064950000000     0.527600000000     0.190950000000     0          
H70      H      0.064950000000     0.527600000000     0.690950000000     0          
H70      H      0.564950000000     0.027600000000     0.190950000000     0          
H70      H      0.564950000000     0.027600000000     0.690950000000     0          
H70      H      0.564950000000     0.527600000000     0.190950000000     0          
H70      H      0.564950000000     0.527600000000     0.690950000000     0          
H71      H      0.022550000000     0.042750000000     0.199300000000     0          
H71      H      0.022550000000     0.042750000000     0.699300000000     0          
H71      H      0.022550000000     0.542750000000     0.199300000000     0          
H71      H      0.022550000000     0.542750000000     0.699300000000     0          
H71      H      0.522550000000     0.042750000000     0.199300000000     0          
H71      H      0.522550000000     0.042750000000     0.699300000000     0          
H71      H      0.522550000000     0.542750000000     0.199300000000     0          
H71      H      0.522550000000     0.542750000000     0.699300000000     0          
H72      H      0.053750000000     0.070900000000     0.181100000000     0          
H72      H      0.053750000000     0.070900000000     0.681100000000     0          
H72      H      0.053750000000     0.570900000000     0.181100000000     0          
H72      H      0.053750000000     0.570900000000     0.681100000000     0          
H72      H      0.553750000000     0.070900000000     0.181100000000     0          
H72      H      0.553750000000     0.070900000000     0.681100000000     0          
H72      H      0.553750000000     0.570900000000     0.181100000000     0          
H72      H      0.553750000000     0.570900000000     0.681100000000     0          
N49      N      0.203550000000     0.007700000000     0.158800000000     0          
N49      N      0.203550000000     0.007700000000     0.658800000000     0          
N49      N      0.203550000000     0.507700000000     0.158800000000     0          
N49      N      0.203550000000     0.507700000000     0.658800000000     0          
N49      N      0.703550000000     0.007700000000     0.158800000000     0          
N49      N      0.703550000000     0.007700000000     0.658800000000     0          
N49      N      0.703550000000     0.507700000000     0.158800000000     0          
N49      N      0.703550000000     0.507700000000     0.658800000000     0          
N50      N      0.182650000000     0.041000000000     0.156500000000     0          
N50      N      0.182650000000     0.041000000000     0.656500000000     0          
N50      N      0.182650000000     0.541000000000     0.156500000000     0          
N50      N      0.182650000000     0.541000000000     0.656500000000     0          
N50      N      0.682650000000     0.041000000000     0.156500000000     0          
N50      N      0.682650000000     0.041000000000     0.656500000000     0          
N50      N      0.682650000000     0.541000000000     0.156500000000     0          
N50      N      0.682650000000     0.541000000000     0.656500000000     0          
H73      H      0.185050000000     0.440950000000     0.222400000000     0          
H73      H      0.185050000000     0.440950000000     0.722400000000     0          
H73      H      0.185050000000     0.940950000000     0.222400000000     0          
H73      H      0.185050000000     0.940950000000     0.722400000000     0          
H73      H      0.685050000000     0.440950000000     0.222400000000     0          
H73      H      0.685050000000     0.440950000000     0.722400000000     0          
H73      H      0.685050000000     0.940950000000     0.222400000000     0          
H73      H      0.685050000000     0.940950000000     0.722400000000     0          
H74      H      0.227450000000     0.449300000000     0.207250000000     0          
H74      H      0.227450000000     0.449300000000     0.707250000000     0          
H74      H      0.227450000000     0.949300000000     0.207250000000     0          
H74      H      0.227450000000     0.949300000000     0.707250000000     0          
H74      H      0.727450000000     0.449300000000     0.207250000000     0          
H74      H      0.727450000000     0.449300000000     0.707250000000     0          
H74      H      0.727450000000     0.949300000000     0.207250000000     0          
H74      H      0.727450000000     0.949300000000     0.707250000000     0          
H75      H      0.196250000000     0.431100000000     0.179100000000     0          
H75      H      0.196250000000     0.431100000000     0.679100000000     0          
H75      H      0.196250000000     0.931100000000     0.179100000000     0          
H75      H      0.196250000000     0.931100000000     0.679100000000     0          
H75      H      0.696250000000     0.431100000000     0.179100000000     0          
H75      H      0.696250000000     0.431100000000     0.679100000000     0          
H75      H      0.696250000000     0.931100000000     0.179100000000     0          
H75      H      0.696250000000     0.931100000000     0.679100000000     0          
N51      N      0.453550000000     0.257700000000     0.408800000000     0          
N51      N      0.453550000000     0.257700000000     0.908800000000     0          
N51      N      0.453550000000     0.757700000000     0.408800000000     0          
N51      N      0.453550000000     0.757700000000     0.908800000000     0          
N51      N      0.953550000000     0.257700000000     0.408800000000     0          
N51      N      0.953550000000     0.257700000000     0.908800000000     0          
N51      N      0.953550000000     0.757700000000     0.408800000000     0          
N51      N      0.953550000000     0.757700000000     0.908800000000     0          
N52      N      0.432650000000     0.291000000000     0.406500000000     0          
N52      N      0.432650000000     0.291000000000     0.906500000000     0          
N52      N      0.432650000000     0.791000000000     0.406500000000     0          
N52      N      0.432650000000     0.791000000000     0.906500000000     0          
N52      N      0.932650000000     0.291000000000     0.406500000000     0          
N52      N      0.932650000000     0.291000000000     0.906500000000     0          
N52      N      0.932650000000     0.791000000000     0.406500000000     0          
N52      N      0.932650000000     0.791000000000     0.906500000000     0          
H76      H      0.435050000000     0.190950000000     0.472400000000     0          
H76      H      0.435050000000     0.190950000000     0.972400000000     0          
H76      H      0.435050000000     0.690950000000     0.472400000000     0          
H76      H      0.435050000000     0.690950000000     0.972400000000     0          
H76      H      0.935050000000     0.190950000000     0.472400000000     0          
H76      H      0.935050000000     0.190950000000     0.972400000000     0          
H76      H      0.935050000000     0.690950000000     0.472400000000     0          
H76      H      0.935050000000     0.690950000000     0.972400000000     0          
H77      H      0.477450000000     0.199300000000     0.457250000000     0          
H77      H      0.477450000000     0.199300000000     0.957250000000     0          
H77      H      0.477450000000     0.699300000000     0.457250000000     0          
H77      H      0.477450000000     0.699300000000     0.957250000000     0          
H77      H      0.977450000000     0.199300000000     0.457250000000     0          
H77      H      0.977450000000     0.199300000000     0.957250000000     0          
H77      H      0.977450000000     0.699300000000     0.457250000000     0          
H77      H      0.977450000000     0.699300000000     0.957250000000     0          
H78      H      0.446250000000     0.181100000000     0.429100000000     0          
H78      H      0.446250000000     0.181100000000     0.929100000000     0          
H78      H      0.446250000000     0.681100000000     0.429100000000     0          
H78      H      0.446250000000     0.681100000000     0.929100000000     0          
H78      H      0.946250000000     0.181100000000     0.429100000000     0          
H78      H      0.946250000000     0.181100000000     0.929100000000     0          
H78      H      0.946250000000     0.681100000000     0.429100000000     0          
H78      H      0.946250000000     0.681100000000     0.929100000000     0          
N53      N      0.296450000000     0.492300000000     0.158800000000     0          
N53      N      0.296450000000     0.492300000000     0.658800000000     0          
N53      N      0.296450000000     0.992300000000     0.158800000000     0          
N53      N      0.296450000000     0.992300000000     0.658800000000     0          
N53      N      0.796450000000     0.492300000000     0.158800000000     0          
N53      N      0.796450000000     0.492300000000     0.658800000000     0          
N53      N      0.796450000000     0.992300000000     0.158800000000     0          
N53      N      0.796450000000     0.992300000000     0.658800000000     0          
N54      N      0.317350000000     0.459000000000     0.156500000000     0          
N54      N      0.317350000000     0.459000000000     0.656500000000     0          
N54      N      0.317350000000     0.959000000000     0.156500000000     0          
N54      N      0.317350000000     0.959000000000     0.656500000000     0          
N54      N      0.817350000000     0.459000000000     0.156500000000     0          
N54      N      0.817350000000     0.459000000000     0.656500000000     0          
N54      N      0.817350000000     0.959000000000     0.156500000000     0          
N54      N      0.817350000000     0.959000000000     0.656500000000     0          
H79      H      0.314950000000     0.059050000000     0.222400000000     0          
H79      H      0.314950000000     0.059050000000     0.722400000000     0          
H79      H      0.314950000000     0.559050000000     0.222400000000     0          
H79      H      0.314950000000     0.559050000000     0.722400000000     0          
H79      H      0.814950000000     0.059050000000     0.222400000000     0          
H79      H      0.814950000000     0.059050000000     0.722400000000     0          
H79      H      0.814950000000     0.559050000000     0.222400000000     0          
H79      H      0.814950000000     0.559050000000     0.722400000000     0          
H80      H      0.272550000000     0.050700000000     0.207250000000     0          
H80      H      0.272550000000     0.050700000000     0.707250000000     0          
H80      H      0.272550000000     0.550700000000     0.207250000000     0          
H80      H      0.272550000000     0.550700000000     0.707250000000     0          
H80      H      0.772550000000     0.050700000000     0.207250000000     0          
H80      H      0.772550000000     0.050700000000     0.707250000000     0          
H80      H      0.772550000000     0.550700000000     0.207250000000     0          
H80      H      0.772550000000     0.550700000000     0.707250000000     0          
H81      H      0.303750000000     0.068900000000     0.179100000000     0          
H81      H      0.303750000000     0.068900000000     0.679100000000     0          
H81      H      0.303750000000     0.568900000000     0.179100000000     0          
H81      H      0.303750000000     0.568900000000     0.679100000000     0          
H81      H      0.803750000000     0.068900000000     0.179100000000     0          
H81      H      0.803750000000     0.068900000000     0.679100000000     0          
H81      H      0.803750000000     0.568900000000     0.179100000000     0          
H81      H      0.803750000000     0.568900000000     0.679100000000     0          
N55      N      0.046450000000     0.242300000000     0.408800000000     0          
N55      N      0.046450000000     0.242300000000     0.908800000000     0          
N55      N      0.046450000000     0.742300000000     0.408800000000     0          
N55      N      0.046450000000     0.742300000000     0.908800000000     0          
N55      N      0.546450000000     0.242300000000     0.408800000000     0          
N55      N      0.546450000000     0.242300000000     0.908800000000     0          
N55      N      0.546450000000     0.742300000000     0.408800000000     0          
N55      N      0.546450000000     0.742300000000     0.908800000000     0          
N56      N      0.067350000000     0.209000000000     0.406500000000     0          
N56      N      0.067350000000     0.209000000000     0.906500000000     0          
N56      N      0.067350000000     0.709000000000     0.406500000000     0          
N56      N      0.067350000000     0.709000000000     0.906500000000     0          
N56      N      0.567350000000     0.209000000000     0.406500000000     0          
N56      N      0.567350000000     0.209000000000     0.906500000000     0          
N56      N      0.567350000000     0.709000000000     0.406500000000     0          
N56      N      0.567350000000     0.709000000000     0.906500000000     0          
H82      H      0.064950000000     0.309050000000     0.472400000000     0          
H82      H      0.064950000000     0.309050000000     0.972400000000     0          
H82      H      0.064950000000     0.809050000000     0.472400000000     0          
H82      H      0.064950000000     0.809050000000     0.972400000000     0          
H82      H      0.564950000000     0.309050000000     0.472400000000     0          
H82      H      0.564950000000     0.309050000000     0.972400000000     0          
H82      H      0.564950000000     0.809050000000     0.472400000000     0          
H82      H      0.564950000000     0.809050000000     0.972400000000     0          
H83      H      0.022550000000     0.300700000000     0.457250000000     0          
H83      H      0.022550000000     0.300700000000     0.957250000000     0          
H83      H      0.022550000000     0.800700000000     0.457250000000     0          
H83      H      0.022550000000     0.800700000000     0.957250000000     0          
H83      H      0.522550000000     0.300700000000     0.457250000000     0          
H83      H      0.522550000000     0.300700000000     0.957250000000     0          
H83      H      0.522550000000     0.800700000000     0.457250000000     0          
H83      H      0.522550000000     0.800700000000     0.957250000000     0          
H84      H      0.053750000000     0.318900000000     0.429100000000     0          
H84      H      0.053750000000     0.318900000000     0.929100000000     0          
H84      H      0.053750000000     0.818900000000     0.429100000000     0          
H84      H      0.053750000000     0.818900000000     0.929100000000     0          
H84      H      0.553750000000     0.318900000000     0.429100000000     0          
H84      H      0.553750000000     0.318900000000     0.929100000000     0          
H84      H      0.553750000000     0.818900000000     0.429100000000     0          
H84      H      0.553750000000     0.818900000000     0.929100000000     0          
N57      N      0.203550000000     0.492300000000     0.341200000000     0          
N57      N      0.203550000000     0.492300000000     0.841200000000     0          
N57      N      0.203550000000     0.992300000000     0.341200000000     0          
N57      N      0.203550000000     0.992300000000     0.841200000000     0          
N57      N      0.703550000000     0.492300000000     0.341200000000     0          
N57      N      0.703550000000     0.492300000000     0.841200000000     0          
N57      N      0.703550000000     0.992300000000     0.341200000000     0          
N57      N      0.703550000000     0.992300000000     0.841200000000     0          
N58      N      0.182650000000     0.459000000000     0.343500000000     0          
N58      N      0.182650000000     0.459000000000     0.843500000000     0          
N58      N      0.182650000000     0.959000000000     0.343500000000     0          
N58      N      0.182650000000     0.959000000000     0.843500000000     0          
N58      N      0.682650000000     0.459000000000     0.343500000000     0          
N58      N      0.682650000000     0.459000000000     0.843500000000     0          
N58      N      0.682650000000     0.959000000000     0.343500000000     0          
N58      N      0.682650000000     0.959000000000     0.843500000000     0          
H85      H      0.185050000000     0.059050000000     0.277600000000     0          
H85      H      0.185050000000     0.059050000000     0.777600000000     0          
H85      H      0.185050000000     0.559050000000     0.277600000000     0          
H85      H      0.185050000000     0.559050000000     0.777600000000     0          
H85      H      0.685050000000     0.059050000000     0.277600000000     0          
H85      H      0.685050000000     0.059050000000     0.777600000000     0          
H85      H      0.685050000000     0.559050000000     0.277600000000     0          
H85      H      0.685050000000     0.559050000000     0.777600000000     0          
H86      H      0.227450000000     0.050700000000     0.292750000000     0          
H86      H      0.227450000000     0.050700000000     0.792750000000     0          
H86      H      0.227450000000     0.550700000000     0.292750000000     0          
H86      H      0.227450000000     0.550700000000     0.792750000000     0          
H86      H      0.727450000000     0.050700000000     0.292750000000     0          
H86      H      0.727450000000     0.050700000000     0.792750000000     0          
H86      H      0.727450000000     0.550700000000     0.292750000000     0          
H86      H      0.727450000000     0.550700000000     0.792750000000     0          
H87      H      0.196250000000     0.068900000000     0.320900000000     0          
H87      H      0.196250000000     0.068900000000     0.820900000000     0          
H87      H      0.196250000000     0.568900000000     0.320900000000     0          
H87      H      0.196250000000     0.568900000000     0.820900000000     0          
H87      H      0.696250000000     0.068900000000     0.320900000000     0          
H87      H      0.696250000000     0.068900000000     0.820900000000     0          
H87      H      0.696250000000     0.568900000000     0.320900000000     0          
H87      H      0.696250000000     0.568900000000     0.820900000000     0          
N59      N      0.453550000000     0.242300000000     0.091200000000     0          
N59      N      0.453550000000     0.242300000000     0.591200000000     0          
N59      N      0.453550000000     0.742300000000     0.091200000000     0          
N59      N      0.453550000000     0.742300000000     0.591200000000     0          
N59      N      0.953550000000     0.242300000000     0.091200000000     0          
N59      N      0.953550000000     0.242300000000     0.591200000000     0          
N59      N      0.953550000000     0.742300000000     0.091200000000     0          
N59      N      0.953550000000     0.742300000000     0.591200000000     0          
N60      N      0.432650000000     0.209000000000     0.093500000000     0          
N60      N      0.432650000000     0.209000000000     0.593500000000     0          
N60      N      0.432650000000     0.709000000000     0.093500000000     0          
N60      N      0.432650000000     0.709000000000     0.593500000000     0          
N60      N      0.932650000000     0.209000000000     0.093500000000     0          
N60      N      0.932650000000     0.209000000000     0.593500000000     0          
N60      N      0.932650000000     0.709000000000     0.093500000000     0          
N60      N      0.932650000000     0.709000000000     0.593500000000     0          
H88      H      0.435050000000     0.309050000000     0.027600000000     0          
H88      H      0.435050000000     0.309050000000     0.527600000000     0          
H88      H      0.435050000000     0.809050000000     0.027600000000     0          
H88      H      0.435050000000     0.809050000000     0.527600000000     0          
H88      H      0.935050000000     0.309050000000     0.027600000000     0          
H88      H      0.935050000000     0.309050000000     0.527600000000     0          
H88      H      0.935050000000     0.809050000000     0.027600000000     0          
H88      H      0.935050000000     0.809050000000     0.527600000000     0          
H89      H      0.477450000000     0.300700000000     0.042750000000     0          
H89      H      0.477450000000     0.300700000000     0.542750000000     0          
H89      H      0.477450000000     0.800700000000     0.042750000000     0          
H89      H      0.477450000000     0.800700000000     0.542750000000     0          
H89      H      0.977450000000     0.300700000000     0.042750000000     0          
H89      H      0.977450000000     0.300700000000     0.542750000000     0          
H89      H      0.977450000000     0.800700000000     0.042750000000     0          
H89      H      0.977450000000     0.800700000000     0.542750000000     0          
H90      H      0.446250000000     0.318900000000     0.070900000000     0          
H90      H      0.446250000000     0.318900000000     0.570900000000     0          
H90      H      0.446250000000     0.818900000000     0.070900000000     0          
H90      H      0.446250000000     0.818900000000     0.570900000000     0          
H90      H      0.946250000000     0.318900000000     0.070900000000     0          
H90      H      0.946250000000     0.318900000000     0.570900000000     0          
H90      H      0.946250000000     0.818900000000     0.070900000000     0          
H90      H      0.946250000000     0.818900000000     0.570900000000     0          
N61      N      0.296450000000     0.007700000000     0.341200000000     0          
N61      N      0.296450000000     0.007700000000     0.841200000000     0          
N61      N      0.296450000000     0.507700000000     0.341200000000     0          
N61      N      0.296450000000     0.507700000000     0.841200000000     0          
N61      N      0.796450000000     0.007700000000     0.341200000000     0          
N61      N      0.796450000000     0.007700000000     0.841200000000     0          
N61      N      0.796450000000     0.507700000000     0.341200000000     0          
N61      N      0.796450000000     0.507700000000     0.841200000000     0          
N62      N      0.317350000000     0.041000000000     0.343500000000     0          
N62      N      0.317350000000     0.041000000000     0.843500000000     0          
N62      N      0.317350000000     0.541000000000     0.343500000000     0          
N62      N      0.317350000000     0.541000000000     0.843500000000     0          
N62      N      0.817350000000     0.041000000000     0.343500000000     0          
N62      N      0.817350000000     0.041000000000     0.843500000000     0          
N62      N      0.817350000000     0.541000000000     0.343500000000     0          
N62      N      0.817350000000     0.541000000000     0.843500000000     0          
H91      H      0.314950000000     0.440950000000     0.277600000000     0          
H91      H      0.314950000000     0.440950000000     0.777600000000     0          
H91      H      0.314950000000     0.940950000000     0.277600000000     0          
H91      H      0.314950000000     0.940950000000     0.777600000000     0          
H91      H      0.814950000000     0.440950000000     0.277600000000     0          
H91      H      0.814950000000     0.440950000000     0.777600000000     0          
H91      H      0.814950000000     0.940950000000     0.277600000000     0          
H91      H      0.814950000000     0.940950000000     0.777600000000     0          
H92      H      0.272550000000     0.449300000000     0.292750000000     0          
H92      H      0.272550000000     0.449300000000     0.792750000000     0          
H92      H      0.272550000000     0.949300000000     0.292750000000     0          
H92      H      0.272550000000     0.949300000000     0.792750000000     0          
H92      H      0.772550000000     0.449300000000     0.292750000000     0          
H92      H      0.772550000000     0.449300000000     0.792750000000     0          
H92      H      0.772550000000     0.949300000000     0.292750000000     0          
H92      H      0.772550000000     0.949300000000     0.792750000000     0          
H93      H      0.303750000000     0.431100000000     0.320900000000     0          
H93      H      0.303750000000     0.431100000000     0.820900000000     0          
H93      H      0.303750000000     0.931100000000     0.320900000000     0          
H93      H      0.303750000000     0.931100000000     0.820900000000     0          
H93      H      0.803750000000     0.431100000000     0.320900000000     0          
H93      H      0.803750000000     0.431100000000     0.820900000000     0          
H93      H      0.803750000000     0.931100000000     0.320900000000     0          
H93      H      0.803750000000     0.931100000000     0.820900000000     0          
N63      N      0.046450000000     0.257700000000     0.091200000000     0          
N63      N      0.046450000000     0.257700000000     0.591200000000     0          
N63      N      0.046450000000     0.757700000000     0.091200000000     0          
N63      N      0.046450000000     0.757700000000     0.591200000000     0          
N63      N      0.546450000000     0.257700000000     0.091200000000     0          
N63      N      0.546450000000     0.257700000000     0.591200000000     0          
N63      N      0.546450000000     0.757700000000     0.091200000000     0          
N63      N      0.546450000000     0.757700000000     0.591200000000     0          
N64      N      0.067350000000     0.291000000000     0.093500000000     0          
N64      N      0.067350000000     0.291000000000     0.593500000000     0          
N64      N      0.067350000000     0.791000000000     0.093500000000     0          
N64      N      0.067350000000     0.791000000000     0.593500000000     0          
N64      N      0.567350000000     0.291000000000     0.093500000000     0          
N64      N      0.567350000000     0.291000000000     0.593500000000     0          
N64      N      0.567350000000     0.791000000000     0.093500000000     0          
N64      N      0.567350000000     0.791000000000     0.593500000000     0          
H94      H      0.064950000000     0.190950000000     0.027600000000     0          
H94      H      0.064950000000     0.190950000000     0.527600000000     0          
H94      H      0.064950000000     0.690950000000     0.027600000000     0          
H94      H      0.064950000000     0.690950000000     0.527600000000     0          
H94      H      0.564950000000     0.190950000000     0.027600000000     0          
H94      H      0.564950000000     0.190950000000     0.527600000000     0          
H94      H      0.564950000000     0.690950000000     0.027600000000     0          
H94      H      0.564950000000     0.690950000000     0.527600000000     0          
H95      H      0.022550000000     0.199300000000     0.042750000000     0          
H95      H      0.022550000000     0.199300000000     0.542750000000     0          
H95      H      0.022550000000     0.699300000000     0.042750000000     0          
H95      H      0.022550000000     0.699300000000     0.542750000000     0          
H95      H      0.522550000000     0.199300000000     0.042750000000     0          
H95      H      0.522550000000     0.199300000000     0.542750000000     0          
H95      H      0.522550000000     0.699300000000     0.042750000000     0          
H95      H      0.522550000000     0.699300000000     0.542750000000     0          
H96      H      0.053750000000     0.181100000000     0.070900000000     0          
H96      H      0.053750000000     0.181100000000     0.570900000000     0          
H96      H      0.053750000000     0.681100000000     0.070900000000     0          
H96      H      0.053750000000     0.681100000000     0.570900000000     0          
H96      H      0.553750000000     0.181100000000     0.070900000000     0          
H96      H      0.553750000000     0.181100000000     0.570900000000     0          
H96      H      0.553750000000     0.681100000000     0.070900000000     0          
H96      H      0.553750000000     0.681100000000     0.570900000000     0          
N65      N      0.007700000000     0.158800000000     0.203550000000     0          
N65      N      0.007700000000     0.158800000000     0.703550000000     0          
N65      N      0.007700000000     0.658800000000     0.203550000000     0          
N65      N      0.007700000000     0.658800000000     0.703550000000     0          
N65      N      0.507700000000     0.158800000000     0.203550000000     0          
N65      N      0.507700000000     0.158800000000     0.703550000000     0          
N65      N      0.507700000000     0.658800000000     0.203550000000     0          
N65      N      0.507700000000     0.658800000000     0.703550000000     0          
N66      N      0.041000000000     0.156500000000     0.182650000000     0          
N66      N      0.041000000000     0.156500000000     0.682650000000     0          
N66      N      0.041000000000     0.656500000000     0.182650000000     0          
N66      N      0.041000000000     0.656500000000     0.682650000000     0          
N66      N      0.541000000000     0.156500000000     0.182650000000     0          
N66      N      0.541000000000     0.156500000000     0.682650000000     0          
N66      N      0.541000000000     0.656500000000     0.182650000000     0          
N66      N      0.541000000000     0.656500000000     0.682650000000     0          
H97      H      0.440950000000     0.222400000000     0.185050000000     0          
H97      H      0.440950000000     0.222400000000     0.685050000000     0          
H97      H      0.440950000000     0.722400000000     0.185050000000     0          
H97      H      0.440950000000     0.722400000000     0.685050000000     0          
H97      H      0.940950000000     0.222400000000     0.185050000000     0          
H97      H      0.940950000000     0.222400000000     0.685050000000     0          
H97      H      0.940950000000     0.722400000000     0.185050000000     0          
H97      H      0.940950000000     0.722400000000     0.685050000000     0          
H98      H      0.449300000000     0.207250000000     0.227450000000     0          
H98      H      0.449300000000     0.207250000000     0.727450000000     0          
H98      H      0.449300000000     0.707250000000     0.227450000000     0          
H98      H      0.449300000000     0.707250000000     0.727450000000     0          
H98      H      0.949300000000     0.207250000000     0.227450000000     0          
H98      H      0.949300000000     0.207250000000     0.727450000000     0          
H98      H      0.949300000000     0.707250000000     0.227450000000     0          
H98      H      0.949300000000     0.707250000000     0.727450000000     0          
H99      H      0.431100000000     0.179100000000     0.196250000000     0          
H99      H      0.431100000000     0.179100000000     0.696250000000     0          
H99      H      0.431100000000     0.679100000000     0.196250000000     0          
H99      H      0.431100000000     0.679100000000     0.696250000000     0          
H99      H      0.931100000000     0.179100000000     0.196250000000     0          
H99      H      0.931100000000     0.179100000000     0.696250000000     0          
H99      H      0.931100000000     0.679100000000     0.196250000000     0          
H99      H      0.931100000000     0.679100000000     0.696250000000     0          
N67      N      0.257700000000     0.408800000000     0.453550000000     0          
N67      N      0.257700000000     0.408800000000     0.953550000000     0          
N67      N      0.257700000000     0.908800000000     0.453550000000     0          
N67      N      0.257700000000     0.908800000000     0.953550000000     0          
N67      N      0.757700000000     0.408800000000     0.453550000000     0          
N67      N      0.757700000000     0.408800000000     0.953550000000     0          
N67      N      0.757700000000     0.908800000000     0.453550000000     0          
N67      N      0.757700000000     0.908800000000     0.953550000000     0          
N68      N      0.291000000000     0.406500000000     0.432650000000     0          
N68      N      0.291000000000     0.406500000000     0.932650000000     0          
N68      N      0.291000000000     0.906500000000     0.432650000000     0          
N68      N      0.291000000000     0.906500000000     0.932650000000     0          
N68      N      0.791000000000     0.406500000000     0.432650000000     0          
N68      N      0.791000000000     0.406500000000     0.932650000000     0          
N68      N      0.791000000000     0.906500000000     0.432650000000     0          
N68      N      0.791000000000     0.906500000000     0.932650000000     0          
H100     H      0.190950000000     0.472400000000     0.435050000000     0          
H100     H      0.190950000000     0.472400000000     0.935050000000     0          
H100     H      0.190950000000     0.972400000000     0.435050000000     0          
H100     H      0.190950000000     0.972400000000     0.935050000000     0          
H100     H      0.690950000000     0.472400000000     0.435050000000     0          
H100     H      0.690950000000     0.472400000000     0.935050000000     0          
H100     H      0.690950000000     0.972400000000     0.435050000000     0          
H100     H      0.690950000000     0.972400000000     0.935050000000     0          
H101     H      0.199300000000     0.457250000000     0.477450000000     0          
H101     H      0.199300000000     0.457250000000     0.977450000000     0          
H101     H      0.199300000000     0.957250000000     0.477450000000     0          
H101     H      0.199300000000     0.957250000000     0.977450000000     0          
H101     H      0.699300000000     0.457250000000     0.477450000000     0          
H101     H      0.699300000000     0.457250000000     0.977450000000     0          
H101     H      0.699300000000     0.957250000000     0.477450000000     0          
H101     H      0.699300000000     0.957250000000     0.977450000000     0          
H102     H      0.181100000000     0.429100000000     0.446250000000     0          
H102     H      0.181100000000     0.429100000000     0.946250000000     0          
H102     H      0.181100000000     0.929100000000     0.446250000000     0          
H102     H      0.181100000000     0.929100000000     0.946250000000     0          
H102     H      0.681100000000     0.429100000000     0.446250000000     0          
H102     H      0.681100000000     0.429100000000     0.946250000000     0          
H102     H      0.681100000000     0.929100000000     0.446250000000     0          
H102     H      0.681100000000     0.929100000000     0.946250000000     0          
N69      N      0.492300000000     0.158800000000     0.296450000000     0          
N69      N      0.492300000000     0.158800000000     0.796450000000     0          
N69      N      0.492300000000     0.658800000000     0.296450000000     0          
N69      N      0.492300000000     0.658800000000     0.796450000000     0          
N69      N      0.992300000000     0.158800000000     0.296450000000     0          
N69      N      0.992300000000     0.158800000000     0.796450000000     0          
N69      N      0.992300000000     0.658800000000     0.296450000000     0          
N69      N      0.992300000000     0.658800000000     0.796450000000     0          
N70      N      0.459000000000     0.156500000000     0.317350000000     0          
N70      N      0.459000000000     0.156500000000     0.817350000000     0          
N70      N      0.459000000000     0.656500000000     0.317350000000     0          
N70      N      0.459000000000     0.656500000000     0.817350000000     0          
N70      N      0.959000000000     0.156500000000     0.317350000000     0          
N70      N      0.959000000000     0.156500000000     0.817350000000     0          
N70      N      0.959000000000     0.656500000000     0.317350000000     0          
N70      N      0.959000000000     0.656500000000     0.817350000000     0          
H103     H      0.059050000000     0.222400000000     0.314950000000     0          
H103     H      0.059050000000     0.222400000000     0.814950000000     0          
H103     H      0.059050000000     0.722400000000     0.314950000000     0          
H103     H      0.059050000000     0.722400000000     0.814950000000     0          
H103     H      0.559050000000     0.222400000000     0.314950000000     0          
H103     H      0.559050000000     0.222400000000     0.814950000000     0          
H103     H      0.559050000000     0.722400000000     0.314950000000     0          
H103     H      0.559050000000     0.722400000000     0.814950000000     0          
H104     H      0.050700000000     0.207250000000     0.272550000000     0          
H104     H      0.050700000000     0.207250000000     0.772550000000     0          
H104     H      0.050700000000     0.707250000000     0.272550000000     0          
H104     H      0.050700000000     0.707250000000     0.772550000000     0          
H104     H      0.550700000000     0.207250000000     0.272550000000     0          
H104     H      0.550700000000     0.207250000000     0.772550000000     0          
H104     H      0.550700000000     0.707250000000     0.272550000000     0          
H104     H      0.550700000000     0.707250000000     0.772550000000     0          
H105     H      0.068900000000     0.179100000000     0.303750000000     0          
H105     H      0.068900000000     0.179100000000     0.803750000000     0          
H105     H      0.068900000000     0.679100000000     0.303750000000     0          
H105     H      0.068900000000     0.679100000000     0.803750000000     0          
H105     H      0.568900000000     0.179100000000     0.303750000000     0          
H105     H      0.568900000000     0.179100000000     0.803750000000     0          
H105     H      0.568900000000     0.679100000000     0.303750000000     0          
H105     H      0.568900000000     0.679100000000     0.803750000000     0          
N71      N      0.242300000000     0.408800000000     0.046450000000     0          
N71      N      0.242300000000     0.408800000000     0.546450000000     0          
N71      N      0.242300000000     0.908800000000     0.046450000000     0          
N71      N      0.242300000000     0.908800000000     0.546450000000     0          
N71      N      0.742300000000     0.408800000000     0.046450000000     0          
N71      N      0.742300000000     0.408800000000     0.546450000000     0          
N71      N      0.742300000000     0.908800000000     0.046450000000     0          
N71      N      0.742300000000     0.908800000000     0.546450000000     0          
N72      N      0.209000000000     0.406500000000     0.067350000000     0          
N72      N      0.209000000000     0.406500000000     0.567350000000     0          
N72      N      0.209000000000     0.906500000000     0.067350000000     0          
N72      N      0.209000000000     0.906500000000     0.567350000000     0          
N72      N      0.709000000000     0.406500000000     0.067350000000     0          
N72      N      0.709000000000     0.406500000000     0.567350000000     0          
N72      N      0.709000000000     0.906500000000     0.067350000000     0          
N72      N      0.709000000000     0.906500000000     0.567350000000     0          
H106     H      0.309050000000     0.472400000000     0.064950000000     0          
H106     H      0.309050000000     0.472400000000     0.564950000000     0          
H106     H      0.309050000000     0.972400000000     0.064950000000     0          
H106     H      0.309050000000     0.972400000000     0.564950000000     0          
H106     H      0.809050000000     0.472400000000     0.064950000000     0          
H106     H      0.809050000000     0.472400000000     0.564950000000     0          
H106     H      0.809050000000     0.972400000000     0.064950000000     0          
H106     H      0.809050000000     0.972400000000     0.564950000000     0          
H107     H      0.300700000000     0.457250000000     0.022550000000     0          
H107     H      0.300700000000     0.457250000000     0.522550000000     0          
H107     H      0.300700000000     0.957250000000     0.022550000000     0          
H107     H      0.300700000000     0.957250000000     0.522550000000     0          
H107     H      0.800700000000     0.457250000000     0.022550000000     0          
H107     H      0.800700000000     0.457250000000     0.522550000000     0          
H107     H      0.800700000000     0.957250000000     0.022550000000     0          
H107     H      0.800700000000     0.957250000000     0.522550000000     0          
H108     H      0.318900000000     0.429100000000     0.053750000000     0          
H108     H      0.318900000000     0.429100000000     0.553750000000     0          
H108     H      0.318900000000     0.929100000000     0.053750000000     0          
H108     H      0.318900000000     0.929100000000     0.553750000000     0          
H108     H      0.818900000000     0.429100000000     0.053750000000     0          
H108     H      0.818900000000     0.429100000000     0.553750000000     0          
H108     H      0.818900000000     0.929100000000     0.053750000000     0          
H108     H      0.818900000000     0.929100000000     0.553750000000     0          
N73      N      0.492300000000     0.341200000000     0.203550000000     0          
N73      N      0.492300000000     0.341200000000     0.703550000000     0          
N73      N      0.492300000000     0.841200000000     0.203550000000     0          
N73      N      0.492300000000     0.841200000000     0.703550000000     0          
N73      N      0.992300000000     0.341200000000     0.203550000000     0          
N73      N      0.992300000000     0.341200000000     0.703550000000     0          
N73      N      0.992300000000     0.841200000000     0.203550000000     0          
N73      N      0.992300000000     0.841200000000     0.703550000000     0          
N74      N      0.459000000000     0.343500000000     0.182650000000     0          
N74      N      0.459000000000     0.343500000000     0.682650000000     0          
N74      N      0.459000000000     0.843500000000     0.182650000000     0          
N74      N      0.459000000000     0.843500000000     0.682650000000     0          
N74      N      0.959000000000     0.343500000000     0.182650000000     0          
N74      N      0.959000000000     0.343500000000     0.682650000000     0          
N74      N      0.959000000000     0.843500000000     0.182650000000     0          
N74      N      0.959000000000     0.843500000000     0.682650000000     0          
H109     H      0.059050000000     0.277600000000     0.185050000000     0          
H109     H      0.059050000000     0.277600000000     0.685050000000     0          
H109     H      0.059050000000     0.777600000000     0.185050000000     0          
H109     H      0.059050000000     0.777600000000     0.685050000000     0          
H109     H      0.559050000000     0.277600000000     0.185050000000     0          
H109     H      0.559050000000     0.277600000000     0.685050000000     0          
H109     H      0.559050000000     0.777600000000     0.185050000000     0          
H109     H      0.559050000000     0.777600000000     0.685050000000     0          
H110     H      0.050700000000     0.292750000000     0.227450000000     0          
H110     H      0.050700000000     0.292750000000     0.727450000000     0          
H110     H      0.050700000000     0.792750000000     0.227450000000     0          
H110     H      0.050700000000     0.792750000000     0.727450000000     0          
H110     H      0.550700000000     0.292750000000     0.227450000000     0          
H110     H      0.550700000000     0.292750000000     0.727450000000     0          
H110     H      0.550700000000     0.792750000000     0.227450000000     0          
H110     H      0.550700000000     0.792750000000     0.727450000000     0          
H111     H      0.068900000000     0.320900000000     0.196250000000     0          
H111     H      0.068900000000     0.320900000000     0.696250000000     0          
H111     H      0.068900000000     0.820900000000     0.196250000000     0          
H111     H      0.068900000000     0.820900000000     0.696250000000     0          
H111     H      0.568900000000     0.320900000000     0.196250000000     0          
H111     H      0.568900000000     0.320900000000     0.696250000000     0          
H111     H      0.568900000000     0.820900000000     0.196250000000     0          
H111     H      0.568900000000     0.820900000000     0.696250000000     0          
N75      N      0.242300000000     0.091200000000     0.453550000000     0          
N75      N      0.242300000000     0.091200000000     0.953550000000     0          
N75      N      0.242300000000     0.591200000000     0.453550000000     0          
N75      N      0.242300000000     0.591200000000     0.953550000000     0          
N75      N      0.742300000000     0.091200000000     0.453550000000     0          
N75      N      0.742300000000     0.091200000000     0.953550000000     0          
N75      N      0.742300000000     0.591200000000     0.453550000000     0          
N75      N      0.742300000000     0.591200000000     0.953550000000     0          
N76      N      0.209000000000     0.093500000000     0.432650000000     0          
N76      N      0.209000000000     0.093500000000     0.932650000000     0          
N76      N      0.209000000000     0.593500000000     0.432650000000     0          
N76      N      0.209000000000     0.593500000000     0.932650000000     0          
N76      N      0.709000000000     0.093500000000     0.432650000000     0          
N76      N      0.709000000000     0.093500000000     0.932650000000     0          
N76      N      0.709000000000     0.593500000000     0.432650000000     0          
N76      N      0.709000000000     0.593500000000     0.932650000000     0          
H112     H      0.309050000000     0.027600000000     0.435050000000     0          
H112     H      0.309050000000     0.027600000000     0.935050000000     0          
H112     H      0.309050000000     0.527600000000     0.435050000000     0          
H112     H      0.309050000000     0.527600000000     0.935050000000     0          
H112     H      0.809050000000     0.027600000000     0.435050000000     0          
H112     H      0.809050000000     0.027600000000     0.935050000000     0          
H112     H      0.809050000000     0.527600000000     0.435050000000     0          
H112     H      0.809050000000     0.527600000000     0.935050000000     0          
H113     H      0.300700000000     0.042750000000     0.477450000000     0          
H113     H      0.300700000000     0.042750000000     0.977450000000     0          
H113     H      0.300700000000     0.542750000000     0.477450000000     0          
H113     H      0.300700000000     0.542750000000     0.977450000000     0          
H113     H      0.800700000000     0.042750000000     0.477450000000     0          
H113     H      0.800700000000     0.042750000000     0.977450000000     0          
H113     H      0.800700000000     0.542750000000     0.477450000000     0          
H113     H      0.800700000000     0.542750000000     0.977450000000     0          
H114     H      0.318900000000     0.070900000000     0.446250000000     0          
H114     H      0.318900000000     0.070900000000     0.946250000000     0          
H114     H      0.318900000000     0.570900000000     0.446250000000     0          
H114     H      0.318900000000     0.570900000000     0.946250000000     0          
H114     H      0.818900000000     0.070900000000     0.446250000000     0          
H114     H      0.818900000000     0.070900000000     0.946250000000     0          
H114     H      0.818900000000     0.570900000000     0.446250000000     0          
H114     H      0.818900000000     0.570900000000     0.946250000000     0          
N77      N      0.007700000000     0.341200000000     0.296450000000     0          
N77      N      0.007700000000     0.341200000000     0.796450000000     0          
N77      N      0.007700000000     0.841200000000     0.296450000000     0          
N77      N      0.007700000000     0.841200000000     0.796450000000     0          
N77      N      0.507700000000     0.341200000000     0.296450000000     0          
N77      N      0.507700000000     0.341200000000     0.796450000000     0          
N77      N      0.507700000000     0.841200000000     0.296450000000     0          
N77      N      0.507700000000     0.841200000000     0.796450000000     0          
N78      N      0.041000000000     0.343500000000     0.317350000000     0          
N78      N      0.041000000000     0.343500000000     0.817350000000     0          
N78      N      0.041000000000     0.843500000000     0.317350000000     0          
N78      N      0.041000000000     0.843500000000     0.817350000000     0          
N78      N      0.541000000000     0.343500000000     0.317350000000     0          
N78      N      0.541000000000     0.343500000000     0.817350000000     0          
N78      N      0.541000000000     0.843500000000     0.317350000000     0          
N78      N      0.541000000000     0.843500000000     0.817350000000     0          
H115     H      0.440950000000     0.277600000000     0.314950000000     0          
H115     H      0.440950000000     0.277600000000     0.814950000000     0          
H115     H      0.440950000000     0.777600000000     0.314950000000     0          
H115     H      0.440950000000     0.777600000000     0.814950000000     0          
H115     H      0.940950000000     0.277600000000     0.314950000000     0          
H115     H      0.940950000000     0.277600000000     0.814950000000     0          
H115     H      0.940950000000     0.777600000000     0.314950000000     0          
H115     H      0.940950000000     0.777600000000     0.814950000000     0          
H116     H      0.449300000000     0.292750000000     0.272550000000     0          
H116     H      0.449300000000     0.292750000000     0.772550000000     0          
H116     H      0.449300000000     0.792750000000     0.272550000000     0          
H116     H      0.449300000000     0.792750000000     0.772550000000     0          
H116     H      0.949300000000     0.292750000000     0.272550000000     0          
H116     H      0.949300000000     0.292750000000     0.772550000000     0          
H116     H      0.949300000000     0.792750000000     0.272550000000     0          
H116     H      0.949300000000     0.792750000000     0.772550000000     0          
H117     H      0.431100000000     0.320900000000     0.303750000000     0          
H117     H      0.431100000000     0.320900000000     0.803750000000     0          
H117     H      0.431100000000     0.820900000000     0.303750000000     0          
H117     H      0.431100000000     0.820900000000     0.803750000000     0          
H117     H      0.931100000000     0.320900000000     0.303750000000     0          
H117     H      0.931100000000     0.320900000000     0.803750000000     0          
H117     H      0.931100000000     0.820900000000     0.303750000000     0          
H117     H      0.931100000000     0.820900000000     0.803750000000     0          
N79      N      0.257700000000     0.091200000000     0.046450000000     0          
N79      N      0.257700000000     0.091200000000     0.546450000000     0          
N79      N      0.257700000000     0.591200000000     0.046450000000     0          
N79      N      0.257700000000     0.591200000000     0.546450000000     0          
N79      N      0.757700000000     0.091200000000     0.046450000000     0          
N79      N      0.757700000000     0.091200000000     0.546450000000     0          
N79      N      0.757700000000     0.591200000000     0.046450000000     0          
N79      N      0.757700000000     0.591200000000     0.546450000000     0          
N80      N      0.291000000000     0.093500000000     0.067350000000     0          
N80      N      0.291000000000     0.093500000000     0.567350000000     0          
N80      N      0.291000000000     0.593500000000     0.067350000000     0          
N80      N      0.291000000000     0.593500000000     0.567350000000     0          
N80      N      0.791000000000     0.093500000000     0.067350000000     0          
N80      N      0.791000000000     0.093500000000     0.567350000000     0          
N80      N      0.791000000000     0.593500000000     0.067350000000     0          
N80      N      0.791000000000     0.593500000000     0.567350000000     0          
H118     H      0.190950000000     0.027600000000     0.064950000000     0          
H118     H      0.190950000000     0.027600000000     0.564950000000     0          
H118     H      0.190950000000     0.527600000000     0.064950000000     0          
H118     H      0.190950000000     0.527600000000     0.564950000000     0          
H118     H      0.690950000000     0.027600000000     0.064950000000     0          
H118     H      0.690950000000     0.027600000000     0.564950000000     0          
H118     H      0.690950000000     0.527600000000     0.064950000000     0          
H118     H      0.690950000000     0.527600000000     0.564950000000     0          
H119     H      0.199300000000     0.042750000000     0.022550000000     0          
H119     H      0.199300000000     0.042750000000     0.522550000000     0          
H119     H      0.199300000000     0.542750000000     0.022550000000     0          
H119     H      0.199300000000     0.542750000000     0.522550000000     0          
H119     H      0.699300000000     0.042750000000     0.022550000000     0          
H119     H      0.699300000000     0.042750000000     0.522550000000     0          
H119     H      0.699300000000     0.542750000000     0.022550000000     0          
H119     H      0.699300000000     0.542750000000     0.522550000000     0          
H120     H      0.181100000000     0.070900000000     0.053750000000     0          
H120     H      0.181100000000     0.070900000000     0.553750000000     0          
H120     H      0.181100000000     0.570900000000     0.053750000000     0          
H120     H      0.181100000000     0.570900000000     0.553750000000     0          
H120     H      0.681100000000     0.070900000000     0.053750000000     0          
H120     H      0.681100000000     0.070900000000     0.553750000000     0          
H120     H      0.681100000000     0.570900000000     0.053750000000     0          
H120     H      0.681100000000     0.570900000000     0.553750000000     0          
N81      N      0.158800000000     0.203550000000     0.007700000000     0          
N81      N      0.158800000000     0.203550000000     0.507700000000     0          
N81      N      0.158800000000     0.703550000000     0.007700000000     0          
N81      N      0.158800000000     0.703550000000     0.507700000000     0          
N81      N      0.658800000000     0.203550000000     0.007700000000     0          
N81      N      0.658800000000     0.203550000000     0.507700000000     0          
N81      N      0.658800000000     0.703550000000     0.007700000000     0          
N81      N      0.658800000000     0.703550000000     0.507700000000     0          
N82      N      0.156500000000     0.182650000000     0.041000000000     0          
N82      N      0.156500000000     0.182650000000     0.541000000000     0          
N82      N      0.156500000000     0.682650000000     0.041000000000     0          
N82      N      0.156500000000     0.682650000000     0.541000000000     0          
N82      N      0.656500000000     0.182650000000     0.041000000000     0          
N82      N      0.656500000000     0.182650000000     0.541000000000     0          
N82      N      0.656500000000     0.682650000000     0.041000000000     0          
N82      N      0.656500000000     0.682650000000     0.541000000000     0          
H121     H      0.222400000000     0.185050000000     0.440950000000     0          
H121     H      0.222400000000     0.185050000000     0.940950000000     0          
H121     H      0.222400000000     0.685050000000     0.440950000000     0          
H121     H      0.222400000000     0.685050000000     0.940950000000     0          
H121     H      0.722400000000     0.185050000000     0.440950000000     0          
H121     H      0.722400000000     0.185050000000     0.940950000000     0          
H121     H      0.722400000000     0.685050000000     0.440950000000     0          
H121     H      0.722400000000     0.685050000000     0.940950000000     0          
H122     H      0.207250000000     0.227450000000     0.449300000000     0          
H122     H      0.207250000000     0.227450000000     0.949300000000     0          
H122     H      0.207250000000     0.727450000000     0.449300000000     0          
H122     H      0.207250000000     0.727450000000     0.949300000000     0          
H122     H      0.707250000000     0.227450000000     0.449300000000     0          
H122     H      0.707250000000     0.227450000000     0.949300000000     0          
H122     H      0.707250000000     0.727450000000     0.449300000000     0          
H122     H      0.707250000000     0.727450000000     0.949300000000     0          
H123     H      0.179100000000     0.196250000000     0.431100000000     0          
H123     H      0.179100000000     0.196250000000     0.931100000000     0          
H123     H      0.179100000000     0.696250000000     0.431100000000     0          
H123     H      0.179100000000     0.696250000000     0.931100000000     0          
H123     H      0.679100000000     0.196250000000     0.431100000000     0          
H123     H      0.679100000000     0.196250000000     0.931100000000     0          
H123     H      0.679100000000     0.696250000000     0.431100000000     0          
H123     H      0.679100000000     0.696250000000     0.931100000000     0          
N83      N      0.408800000000     0.453550000000     0.257700000000     0          
N83      N      0.408800000000     0.453550000000     0.757700000000     0          
N83      N      0.408800000000     0.953550000000     0.257700000000     0          
N83      N      0.408800000000     0.953550000000     0.757700000000     0          
N83      N      0.908800000000     0.453550000000     0.257700000000     0          
N83      N      0.908800000000     0.453550000000     0.757700000000     0          
N83      N      0.908800000000     0.953550000000     0.257700000000     0          
N83      N      0.908800000000     0.953550000000     0.757700000000     0          
N84      N      0.406500000000     0.432650000000     0.291000000000     0          
N84      N      0.406500000000     0.432650000000     0.791000000000     0          
N84      N      0.406500000000     0.932650000000     0.291000000000     0          
N84      N      0.406500000000     0.932650000000     0.791000000000     0          
N84      N      0.906500000000     0.432650000000     0.291000000000     0          
N84      N      0.906500000000     0.432650000000     0.791000000000     0          
N84      N      0.906500000000     0.932650000000     0.291000000000     0          
N84      N      0.906500000000     0.932650000000     0.791000000000     0          
H124     H      0.472400000000     0.435050000000     0.190950000000     0          
H124     H      0.472400000000     0.435050000000     0.690950000000     0          
H124     H      0.472400000000     0.935050000000     0.190950000000     0          
H124     H      0.472400000000     0.935050000000     0.690950000000     0          
H124     H      0.972400000000     0.435050000000     0.190950000000     0          
H124     H      0.972400000000     0.435050000000     0.690950000000     0          
H124     H      0.972400000000     0.935050000000     0.190950000000     0          
H124     H      0.972400000000     0.935050000000     0.690950000000     0          
H125     H      0.457250000000     0.477450000000     0.199300000000     0          
H125     H      0.457250000000     0.477450000000     0.699300000000     0          
H125     H      0.457250000000     0.977450000000     0.199300000000     0          
H125     H      0.457250000000     0.977450000000     0.699300000000     0          
H125     H      0.957250000000     0.477450000000     0.199300000000     0          
H125     H      0.957250000000     0.477450000000     0.699300000000     0          
H125     H      0.957250000000     0.977450000000     0.199300000000     0          
H125     H      0.957250000000     0.977450000000     0.699300000000     0          
H126     H      0.429100000000     0.446250000000     0.181100000000     0          
H126     H      0.429100000000     0.446250000000     0.681100000000     0          
H126     H      0.429100000000     0.946250000000     0.181100000000     0          
H126     H      0.429100000000     0.946250000000     0.681100000000     0          
H126     H      0.929100000000     0.446250000000     0.181100000000     0          
H126     H      0.929100000000     0.446250000000     0.681100000000     0          
H126     H      0.929100000000     0.946250000000     0.181100000000     0          
H126     H      0.929100000000     0.946250000000     0.681100000000     0          
N85      N      0.158800000000     0.296450000000     0.492300000000     0          
N85      N      0.158800000000     0.296450000000     0.992300000000     0          
N85      N      0.158800000000     0.796450000000     0.492300000000     0          
N85      N      0.158800000000     0.796450000000     0.992300000000     0          
N85      N      0.658800000000     0.296450000000     0.492300000000     0          
N85      N      0.658800000000     0.296450000000     0.992300000000     0          
N85      N      0.658800000000     0.796450000000     0.492300000000     0          
N85      N      0.658800000000     0.796450000000     0.992300000000     0          
N86      N      0.156500000000     0.317350000000     0.459000000000     0          
N86      N      0.156500000000     0.317350000000     0.959000000000     0          
N86      N      0.156500000000     0.817350000000     0.459000000000     0          
N86      N      0.156500000000     0.817350000000     0.959000000000     0          
N86      N      0.656500000000     0.317350000000     0.459000000000     0          
N86      N      0.656500000000     0.317350000000     0.959000000000     0          
N86      N      0.656500000000     0.817350000000     0.459000000000     0          
N86      N      0.656500000000     0.817350000000     0.959000000000     0          
H127     H      0.222400000000     0.314950000000     0.059050000000     0          
H127     H      0.222400000000     0.314950000000     0.559050000000     0          
H127     H      0.222400000000     0.814950000000     0.059050000000     0          
H127     H      0.222400000000     0.814950000000     0.559050000000     0          
H127     H      0.722400000000     0.314950000000     0.059050000000     0          
H127     H      0.722400000000     0.314950000000     0.559050000000     0          
H127     H      0.722400000000     0.814950000000     0.059050000000     0          
H127     H      0.722400000000     0.814950000000     0.559050000000     0          
H128     H      0.207250000000     0.272550000000     0.050700000000     0          
H128     H      0.207250000000     0.272550000000     0.550700000000     0          
H128     H      0.207250000000     0.772550000000     0.050700000000     0          
H128     H      0.207250000000     0.772550000000     0.550700000000     0          
H128     H      0.707250000000     0.272550000000     0.050700000000     0          
H128     H      0.707250000000     0.272550000000     0.550700000000     0          
H128     H      0.707250000000     0.772550000000     0.050700000000     0          
H128     H      0.707250000000     0.772550000000     0.550700000000     0          
H129     H      0.179100000000     0.303750000000     0.068900000000     0          
H129     H      0.179100000000     0.303750000000     0.568900000000     0          
H129     H      0.179100000000     0.803750000000     0.068900000000     0          
H129     H      0.179100000000     0.803750000000     0.568900000000     0          
H129     H      0.679100000000     0.303750000000     0.068900000000     0          
H129     H      0.679100000000     0.303750000000     0.568900000000     0          
H129     H      0.679100000000     0.803750000000     0.068900000000     0          
H129     H      0.679100000000     0.803750000000     0.568900000000     0          
N87      N      0.408800000000     0.046450000000     0.242300000000     0          
N87      N      0.408800000000     0.046450000000     0.742300000000     0          
N87      N      0.408800000000     0.546450000000     0.242300000000     0          
N87      N      0.408800000000     0.546450000000     0.742300000000     0          
N87      N      0.908800000000     0.046450000000     0.242300000000     0          
N87      N      0.908800000000     0.046450000000     0.742300000000     0          
N87      N      0.908800000000     0.546450000000     0.242300000000     0          
N87      N      0.908800000000     0.546450000000     0.742300000000     0          
N88      N      0.406500000000     0.067350000000     0.209000000000     0          
N88      N      0.406500000000     0.067350000000     0.709000000000     0          
N88      N      0.406500000000     0.567350000000     0.209000000000     0          
N88      N      0.406500000000     0.567350000000     0.709000000000     0          
N88      N      0.906500000000     0.067350000000     0.209000000000     0          
N88      N      0.906500000000     0.067350000000     0.709000000000     0          
N88      N      0.906500000000     0.567350000000     0.209000000000     0          
N88      N      0.906500000000     0.567350000000     0.709000000000     0          
H130     H      0.472400000000     0.064950000000     0.309050000000     0          
H130     H      0.472400000000     0.064950000000     0.809050000000     0          
H130     H      0.472400000000     0.564950000000     0.309050000000     0          
H130     H      0.472400000000     0.564950000000     0.809050000000     0          
H130     H      0.972400000000     0.064950000000     0.309050000000     0          
H130     H      0.972400000000     0.064950000000     0.809050000000     0          
H130     H      0.972400000000     0.564950000000     0.309050000000     0          
H130     H      0.972400000000     0.564950000000     0.809050000000     0          
H131     H      0.457250000000     0.022550000000     0.300700000000     0          
H131     H      0.457250000000     0.022550000000     0.800700000000     0          
H131     H      0.457250000000     0.522550000000     0.300700000000     0          
H131     H      0.457250000000     0.522550000000     0.800700000000     0          
H131     H      0.957250000000     0.022550000000     0.300700000000     0          
H131     H      0.957250000000     0.022550000000     0.800700000000     0          
H131     H      0.957250000000     0.522550000000     0.300700000000     0          
H131     H      0.957250000000     0.522550000000     0.800700000000     0          
H132     H      0.429100000000     0.053750000000     0.318900000000     0          
H132     H      0.429100000000     0.053750000000     0.818900000000     0          
H132     H      0.429100000000     0.553750000000     0.318900000000     0          
H132     H      0.429100000000     0.553750000000     0.818900000000     0          
H132     H      0.929100000000     0.053750000000     0.318900000000     0          
H132     H      0.929100000000     0.053750000000     0.818900000000     0          
H132     H      0.929100000000     0.553750000000     0.318900000000     0          
H132     H      0.929100000000     0.553750000000     0.818900000000     0          
N89      N      0.341200000000     0.203550000000     0.492300000000     0          
N89      N      0.341200000000     0.203550000000     0.992300000000     0          
N89      N      0.341200000000     0.703550000000     0.492300000000     0          
N89      N      0.341200000000     0.703550000000     0.992300000000     0          
N89      N      0.841200000000     0.203550000000     0.492300000000     0          
N89      N      0.841200000000     0.203550000000     0.992300000000     0          
N89      N      0.841200000000     0.703550000000     0.492300000000     0          
N89      N      0.841200000000     0.703550000000     0.992300000000     0          
N90      N      0.343500000000     0.182650000000     0.459000000000     0          
N90      N      0.343500000000     0.182650000000     0.959000000000     0          
N90      N      0.343500000000     0.682650000000     0.459000000000     0          
N90      N      0.343500000000     0.682650000000     0.959000000000     0          
N90      N      0.843500000000     0.182650000000     0.459000000000     0          
N90      N      0.843500000000     0.182650000000     0.959000000000     0          
N90      N      0.843500000000     0.682650000000     0.459000000000     0          
N90      N      0.843500000000     0.682650000000     0.959000000000     0          
H133     H      0.277600000000     0.185050000000     0.059050000000     0          
H133     H      0.277600000000     0.185050000000     0.559050000000     0          
H133     H      0.277600000000     0.685050000000     0.059050000000     0          
H133     H      0.277600000000     0.685050000000     0.559050000000     0          
H133     H      0.777600000000     0.185050000000     0.059050000000     0          
H133     H      0.777600000000     0.185050000000     0.559050000000     0          
H133     H      0.777600000000     0.685050000000     0.059050000000     0          
H133     H      0.777600000000     0.685050000000     0.559050000000     0          
H134     H      0.292750000000     0.227450000000     0.050700000000     0          
H134     H      0.292750000000     0.227450000000     0.550700000000     0          
H134     H      0.292750000000     0.727450000000     0.050700000000     0          
H134     H      0.292750000000     0.727450000000     0.550700000000     0          
H134     H      0.792750000000     0.227450000000     0.050700000000     0          
H134     H      0.792750000000     0.227450000000     0.550700000000     0          
H134     H      0.792750000000     0.727450000000     0.050700000000     0          
H134     H      0.792750000000     0.727450000000     0.550700000000     0          
H135     H      0.320900000000     0.196250000000     0.068900000000     0          
H135     H      0.320900000000     0.196250000000     0.568900000000     0          
H135     H      0.320900000000     0.696250000000     0.068900000000     0          
H135     H      0.320900000000     0.696250000000     0.568900000000     0          
H135     H      0.820900000000     0.196250000000     0.068900000000     0          
H135     H      0.820900000000     0.196250000000     0.568900000000     0          
H135     H      0.820900000000     0.696250000000     0.068900000000     0          
H135     H      0.820900000000     0.696250000000     0.568900000000     0          
N91      N      0.091200000000     0.453550000000     0.242300000000     0          
N91      N      0.091200000000     0.453550000000     0.742300000000     0          
N91      N      0.091200000000     0.953550000000     0.242300000000     0          
N91      N      0.091200000000     0.953550000000     0.742300000000     0          
N91      N      0.591200000000     0.453550000000     0.242300000000     0          
N91      N      0.591200000000     0.453550000000     0.742300000000     0          
N91      N      0.591200000000     0.953550000000     0.242300000000     0          
N91      N      0.591200000000     0.953550000000     0.742300000000     0          
N92      N      0.093500000000     0.432650000000     0.209000000000     0          
N92      N      0.093500000000     0.432650000000     0.709000000000     0          
N92      N      0.093500000000     0.932650000000     0.209000000000     0          
N92      N      0.093500000000     0.932650000000     0.709000000000     0          
N92      N      0.593500000000     0.432650000000     0.209000000000     0          
N92      N      0.593500000000     0.432650000000     0.709000000000     0          
N92      N      0.593500000000     0.932650000000     0.209000000000     0          
N92      N      0.593500000000     0.932650000000     0.709000000000     0          
H136     H      0.027600000000     0.435050000000     0.309050000000     0          
H136     H      0.027600000000     0.435050000000     0.809050000000     0          
H136     H      0.027600000000     0.935050000000     0.309050000000     0          
H136     H      0.027600000000     0.935050000000     0.809050000000     0          
H136     H      0.527600000000     0.435050000000     0.309050000000     0          
H136     H      0.527600000000     0.435050000000     0.809050000000     0          
H136     H      0.527600000000     0.935050000000     0.309050000000     0          
H136     H      0.527600000000     0.935050000000     0.809050000000     0          
H137     H      0.042750000000     0.477450000000     0.300700000000     0          
H137     H      0.042750000000     0.477450000000     0.800700000000     0          
H137     H      0.042750000000     0.977450000000     0.300700000000     0          
H137     H      0.042750000000     0.977450000000     0.800700000000     0          
H137     H      0.542750000000     0.477450000000     0.300700000000     0          
H137     H      0.542750000000     0.477450000000     0.800700000000     0          
H137     H      0.542750000000     0.977450000000     0.300700000000     0          
H137     H      0.542750000000     0.977450000000     0.800700000000     0          
H138     H      0.070900000000     0.446250000000     0.318900000000     0          
H138     H      0.070900000000     0.446250000000     0.818900000000     0          
H138     H      0.070900000000     0.946250000000     0.318900000000     0          
H138     H      0.070900000000     0.946250000000     0.818900000000     0          
H138     H      0.570900000000     0.446250000000     0.318900000000     0          
H138     H      0.570900000000     0.446250000000     0.818900000000     0          
H138     H      0.570900000000     0.946250000000     0.318900000000     0          
H138     H      0.570900000000     0.946250000000     0.818900000000     0          
N93      N      0.341200000000     0.296450000000     0.007700000000     0          
N93      N      0.341200000000     0.296450000000     0.507700000000     0          
N93      N      0.341200000000     0.796450000000     0.007700000000     0          
N93      N      0.341200000000     0.796450000000     0.507700000000     0          
N93      N      0.841200000000     0.296450000000     0.007700000000     0          
N93      N      0.841200000000     0.296450000000     0.507700000000     0          
N93      N      0.841200000000     0.796450000000     0.007700000000     0          
N93      N      0.841200000000     0.796450000000     0.507700000000     0          
N94      N      0.343500000000     0.317350000000     0.041000000000     0          
N94      N      0.343500000000     0.317350000000     0.541000000000     0          
N94      N      0.343500000000     0.817350000000     0.041000000000     0          
N94      N      0.343500000000     0.817350000000     0.541000000000     0          
N94      N      0.843500000000     0.317350000000     0.041000000000     0          
N94      N      0.843500000000     0.317350000000     0.541000000000     0          
N94      N      0.843500000000     0.817350000000     0.041000000000     0          
N94      N      0.843500000000     0.817350000000     0.541000000000     0          
H139     H      0.277600000000     0.314950000000     0.440950000000     0          
H139     H      0.277600000000     0.314950000000     0.940950000000     0          
H139     H      0.277600000000     0.814950000000     0.440950000000     0          
H139     H      0.277600000000     0.814950000000     0.940950000000     0          
H139     H      0.777600000000     0.314950000000     0.440950000000     0          
H139     H      0.777600000000     0.314950000000     0.940950000000     0          
H139     H      0.777600000000     0.814950000000     0.440950000000     0          
H139     H      0.777600000000     0.814950000000     0.940950000000     0          
H140     H      0.292750000000     0.272550000000     0.449300000000     0          
H140     H      0.292750000000     0.272550000000     0.949300000000     0          
H140     H      0.292750000000     0.772550000000     0.449300000000     0          
H140     H      0.292750000000     0.772550000000     0.949300000000     0          
H140     H      0.792750000000     0.272550000000     0.449300000000     0          
H140     H      0.792750000000     0.272550000000     0.949300000000     0          
H140     H      0.792750000000     0.772550000000     0.449300000000     0          
H140     H      0.792750000000     0.772550000000     0.949300000000     0          
H141     H      0.320900000000     0.303750000000     0.431100000000     0          
H141     H      0.320900000000     0.303750000000     0.931100000000     0          
H141     H      0.320900000000     0.803750000000     0.431100000000     0          
H141     H      0.320900000000     0.803750000000     0.931100000000     0          
H141     H      0.820900000000     0.303750000000     0.431100000000     0          
H141     H      0.820900000000     0.303750000000     0.931100000000     0          
H141     H      0.820900000000     0.803750000000     0.431100000000     0          
H141     H      0.820900000000     0.803750000000     0.931100000000     0          
N95      N      0.091200000000     0.046450000000     0.257700000000     0          
N95      N      0.091200000000     0.046450000000     0.757700000000     0          
N95      N      0.091200000000     0.546450000000     0.257700000000     0          
N95      N      0.091200000000     0.546450000000     0.757700000000     0          
N95      N      0.591200000000     0.046450000000     0.257700000000     0          
N95      N      0.591200000000     0.046450000000     0.757700000000     0          
N95      N      0.591200000000     0.546450000000     0.257700000000     0          
N95      N      0.591200000000     0.546450000000     0.757700000000     0          
N96      N      0.093500000000     0.067350000000     0.291000000000     0          
N96      N      0.093500000000     0.067350000000     0.791000000000     0          
N96      N      0.093500000000     0.567350000000     0.291000000000     0          
N96      N      0.093500000000     0.567350000000     0.791000000000     0          
N96      N      0.593500000000     0.067350000000     0.291000000000     0          
N96      N      0.593500000000     0.067350000000     0.791000000000     0          
N96      N      0.593500000000     0.567350000000     0.291000000000     0          
N96      N      0.593500000000     0.567350000000     0.791000000000     0          
H142     H      0.027600000000     0.064950000000     0.190950000000     0          
H142     H      0.027600000000     0.064950000000     0.690950000000     0          
H142     H      0.027600000000     0.564950000000     0.190950000000     0          
H142     H      0.027600000000     0.564950000000     0.690950000000     0          
H142     H      0.527600000000     0.064950000000     0.190950000000     0          
H142     H      0.527600000000     0.064950000000     0.690950000000     0          
H142     H      0.527600000000     0.564950000000     0.190950000000     0          
H142     H      0.527600000000     0.564950000000     0.690950000000     0          
H143     H      0.042750000000     0.022550000000     0.199300000000     0          
H143     H      0.042750000000     0.022550000000     0.699300000000     0          
H143     H      0.042750000000     0.522550000000     0.199300000000     0          
H143     H      0.042750000000     0.522550000000     0.699300000000     0          
H143     H      0.542750000000     0.022550000000     0.199300000000     0          
H143     H      0.542750000000     0.022550000000     0.699300000000     0          
H143     H      0.542750000000     0.522550000000     0.199300000000     0          
H143     H      0.542750000000     0.522550000000     0.699300000000     0          
H144     H      0.070900000000     0.053750000000     0.181100000000     0          
H144     H      0.070900000000     0.053750000000     0.681100000000     0          
H144     H      0.070900000000     0.553750000000     0.181100000000     0          
H144     H      0.070900000000     0.553750000000     0.681100000000     0          
H144     H      0.570900000000     0.053750000000     0.181100000000     0          
H144     H      0.570900000000     0.053750000000     0.681100000000     0          
H144     H      0.570900000000     0.553750000000     0.181100000000     0          
H144     H      0.570900000000     0.553750000000     0.681100000000     0          
Zn1      Zn     0.000000000000     0.250000000000     0.125000000000     0          
Zn1      Zn     0.000000000000     0.250000000000     0.625000000000     0          
Zn1      Zn     0.000000000000     0.750000000000     0.125000000000     0          
Zn1      Zn     0.000000000000     0.750000000000     0.625000000000     0          
Zn1      Zn     0.500000000000     0.250000000000     0.125000000000     0          
Zn1      Zn     0.500000000000     0.250000000000     0.625000000000     0          
Zn1      Zn     0.500000000000     0.750000000000     0.125000000000     0          
Zn1      Zn     0.500000000000     0.750000000000     0.625000000000     0          
Zn2      Zn     0.000000000000     0.250000000000     0.375000000000     0          
Zn2      Zn     0.000000000000     0.250000000000     0.875000000000     0          
Zn2      Zn     0.000000000000     0.750000000000     0.375000000000     0          
Zn2      Zn     0.000000000000     0.750000000000     0.875000000000     0          
Zn2      Zn     0.500000000000     0.250000000000     0.375000000000     0          
Zn2      Zn     0.500000000000     0.250000000000     0.875000000000     0          
Zn2      Zn     0.500000000000     0.750000000000     0.375000000000     0          
Zn2      Zn     0.500000000000     0.750000000000     0.875000000000     0          
Zn3      Zn     0.125000000000     0.000000000000     0.250000000000     0          
Zn3      Zn     0.125000000000     0.000000000000     0.750000000000     0          
Zn3      Zn     0.125000000000     0.500000000000     0.250000000000     0          
Zn3      Zn     0.125000000000     0.500000000000     0.750000000000     0          
Zn3      Zn     0.625000000000     0.000000000000     0.250000000000     0          
Zn3      Zn     0.625000000000     0.000000000000     0.750000000000     0          
Zn3      Zn     0.625000000000     0.500000000000     0.250000000000     0          
Zn3      Zn     0.625000000000     0.500000000000     0.750000000000     0          
Zn4      Zn     0.375000000000     0.000000000000     0.250000000000     0          
Zn4      Zn     0.375000000000     0.000000000000     0.750000000000     0          
Zn4      Zn     0.375000000000     0.500000000000     0.250000000000     0          
Zn4      Zn     0.375000000000     0.500000000000     0.750000000000     0          
Zn4      Zn     0.875000000000     0.000000000000     0.250000000000     0          
Zn4      Zn     0.875000000000     0.000000000000     0.750000000000     0          
Zn4      Zn     0.875000000000     0.500000000000     0.250000000000     0          
Zn4      Zn     0.875000000000     0.500000000000     0.750000000000     0          
Zn5      Zn     0.250000000000     0.125000000000     0.000000000000     0          
Zn5      Zn     0.250000000000     0.125000000000     0.500000000000     0          
Zn5      Zn     0.250000000000     0.625000000000     0.000000000000     0          
Zn5      Zn     0.250000000000     0.625000000000     0.500000000000     0          
Zn5      Zn     0.750000000000     0.125000000000     0.000000000000     0          
Zn5      Zn     0.750000000000     0.125000000000     0.500000000000     0          
Zn5      Zn     0.750000000000     0.625000000000     0.000000000000     0          
Zn5      Zn     0.750000000000     0.625000000000     0.500000000000     0          
Zn6      Zn     0.250000000000     0.375000000000     0.000000000000     0          
Zn6      Zn     0.250000000000     0.375000000000     0.500000000000     0          
Zn6      Zn     0.250000000000     0.875000000000     0.000000000000     0          
Zn6      Zn     0.250000000000     0.875000000000     0.500000000000     0          
Zn6      Zn     0.750000000000     0.375000000000     0.000000000000     0          
Zn6      Zn     0.750000000000     0.375000000000     0.500000000000     0          
Zn6      Zn     0.750000000000     0.875000000000     0.000000000000     0          
Zn6      Zn     0.750000000000     0.875000000000     0.500000000000     0          
Zn7      Zn     0.250000000000     0.000000000000     0.125000000000     0          
Zn7      Zn     0.250000000000     0.000000000000     0.625000000000     0          
Zn7      Zn     0.250000000000     0.500000000000     0.125000000000     0          
Zn7      Zn     0.250000000000     0.500000000000     0.625000000000     0          
Zn7      Zn     0.750000000000     0.000000000000     0.125000000000     0          
Zn7      Zn     0.750000000000     0.000000000000     0.625000000000     0          
Zn7      Zn     0.750000000000     0.500000000000     0.125000000000     0          
Zn7      Zn     0.750000000000     0.500000000000     0.625000000000     0          
Zn8      Zn     0.250000000000     0.000000000000     0.375000000000     0          
Zn8      Zn     0.250000000000     0.000000000000     0.875000000000     0          
Zn8      Zn     0.250000000000     0.500000000000     0.375000000000     0          
Zn8      Zn     0.250000000000     0.500000000000     0.875000000000     0          
Zn8      Zn     0.750000000000     0.000000000000     0.375000000000     0          
Zn8      Zn     0.750000000000     0.000000000000     0.875000000000     0          
Zn8      Zn     0.750000000000     0.500000000000     0.375000000000     0          
Zn8      Zn     0.750000000000     0.500000000000     0.875000000000     0          
Zn9      Zn     0.000000000000     0.125000000000     0.250000000000     0          
Zn9      Zn     0.000000000000     0.125000000000     0.750000000000     0          
Zn9      Zn     0.000000000000     0.625000000000     0.250000000000     0          
Zn9      Zn     0.000000000000     0.625000000000     0.750000000000     0          
Zn9      Zn     0.500000000000     0.125000000000     0.250000000000     0          
Zn9      Zn     0.500000000000     0.125000000000     0.750000000000     0          
Zn9      Zn     0.500000000000     0.625000000000     0.250000000000     0          
Zn9      Zn     0.500000000000     0.625000000000     0.750000000000     0          
Zn10     Zn     0.000000000000     0.375000000000     0.250000000000     0          
Zn10     Zn     0.000000000000     0.375000000000     0.750000000000     0          
Zn10     Zn     0.000000000000     0.875000000000     0.250000000000     0          
Zn10     Zn     0.000000000000     0.875000000000     0.750000000000     0          
Zn10     Zn     0.500000000000     0.375000000000     0.250000000000     0          
Zn10     Zn     0.500000000000     0.375000000000     0.750000000000     0          
Zn10     Zn     0.500000000000     0.875000000000     0.250000000000     0          
Zn10     Zn     0.500000000000     0.875000000000     0.750000000000     0          
Zn11     Zn     0.125000000000     0.250000000000     0.000000000000     0          
Zn11     Zn     0.125000000000     0.250000000000     0.500000000000     0          
Zn11     Zn     0.125000000000     0.750000000000     0.000000000000     0          
Zn11     Zn     0.125000000000     0.750000000000     0.500000000000     0          
Zn11     Zn     0.625000000000     0.250000000000     0.000000000000     0          
Zn11     Zn     0.625000000000     0.250000000000     0.500000000000     0          
Zn11     Zn     0.625000000000     0.750000000000     0.000000000000     0          
Zn11     Zn     0.625000000000     0.750000000000     0.500000000000     0          
Zn12     Zn     0.375000000000     0.250000000000     0.000000000000     0          
Zn12     Zn     0.375000000000     0.250000000000     0.500000000000     0          
Zn12     Zn     0.375000000000     0.750000000000     0.000000000000     0          
Zn12     Zn     0.375000000000     0.750000000000     0.500000000000     0          
Zn12     Zn     0.875000000000     0.250000000000     0.000000000000     0          
Zn12     Zn     0.875000000000     0.250000000000     0.500000000000     0          
Zn12     Zn     0.875000000000     0.750000000000     0.000000000000     0          
Zn12     Zn     0.875000000000     0.750000000000     0.500000000000     0          
C1       C      0.489250000000     0.187950000000     0.187950000000     0          
C1       C      0.489250000000     0.187950000000     0.687950000000     0          
C1       C      0.489250000000     0.687950000000     0.187950000000     0          
C1       C      0.489250000000     0.687950000000     0.687950000000     0          
C1       C      0.989250000000     0.187950000000     0.187950000000     0          
C1       C      0.989250000000     0.187950000000     0.687950000000     0          
C1       C      0.989250000000     0.687950000000     0.187950000000     0          
C1       C      0.989250000000     0.687950000000     0.687950000000     0          
C2       C      0.449050000000     0.200300000000     0.200300000000     0          
C2       C      0.449050000000     0.200300000000     0.700300000000     0          
C2       C      0.449050000000     0.700300000000     0.200300000000     0          
C2       C      0.449050000000     0.700300000000     0.700300000000     0          
C2       C      0.949050000000     0.200300000000     0.200300000000     0          
C2       C      0.949050000000     0.200300000000     0.700300000000     0          
C2       C      0.949050000000     0.700300000000     0.200300000000     0          
C2       C      0.949050000000     0.700300000000     0.700300000000     0          
C3       C      0.239250000000     0.437950000000     0.437950000000     0          
C3       C      0.239250000000     0.437950000000     0.937950000000     0          
C3       C      0.239250000000     0.937950000000     0.437950000000     0          
C3       C      0.239250000000     0.937950000000     0.937950000000     0          
C3       C      0.739250000000     0.437950000000     0.437950000000     0          
C3       C      0.739250000000     0.437950000000     0.937950000000     0          
C3       C      0.739250000000     0.937950000000     0.437950000000     0          
C3       C      0.739250000000     0.937950000000     0.937950000000     0          
C4       C      0.199050000000     0.450300000000     0.450300000000     0          
C4       C      0.199050000000     0.450300000000     0.950300000000     0          
C4       C      0.199050000000     0.950300000000     0.450300000000     0          
C4       C      0.199050000000     0.950300000000     0.950300000000     0          
C4       C      0.699050000000     0.450300000000     0.450300000000     0          
C4       C      0.699050000000     0.450300000000     0.950300000000     0          
C4       C      0.699050000000     0.950300000000     0.450300000000     0          
C4       C      0.699050000000     0.950300000000     0.950300000000     0          
C5       C      0.010750000000     0.312050000000     0.187950000000     0          
C5       C      0.010750000000     0.312050000000     0.687950000000     0          
C5       C      0.010750000000     0.812050000000     0.187950000000     0          
C5       C      0.010750000000     0.812050000000     0.687950000000     0          
C5       C      0.510750000000     0.312050000000     0.187950000000     0          
C5       C      0.510750000000     0.312050000000     0.687950000000     0          
C5       C      0.510750000000     0.812050000000     0.187950000000     0          
C5       C      0.510750000000     0.812050000000     0.687950000000     0          
C6       C      0.050950000000     0.299700000000     0.200300000000     0          
C6       C      0.050950000000     0.299700000000     0.700300000000     0          
C6       C      0.050950000000     0.799700000000     0.200300000000     0          
C6       C      0.050950000000     0.799700000000     0.700300000000     0          
C6       C      0.550950000000     0.299700000000     0.200300000000     0          
C6       C      0.550950000000     0.299700000000     0.700300000000     0          
C6       C      0.550950000000     0.799700000000     0.200300000000     0          
C6       C      0.550950000000     0.799700000000     0.700300000000     0          
C7       C      0.260750000000     0.062050000000     0.437950000000     0          
C7       C      0.260750000000     0.062050000000     0.937950000000     0          
C7       C      0.260750000000     0.562050000000     0.437950000000     0          
C7       C      0.260750000000     0.562050000000     0.937950000000     0          
C7       C      0.760750000000     0.062050000000     0.437950000000     0          
C7       C      0.760750000000     0.062050000000     0.937950000000     0          
C7       C      0.760750000000     0.562050000000     0.437950000000     0          
C7       C      0.760750000000     0.562050000000     0.937950000000     0          
C8       C      0.300950000000     0.049700000000     0.450300000000     0          
C8       C      0.300950000000     0.049700000000     0.950300000000     0          
C8       C      0.300950000000     0.549700000000     0.450300000000     0          
C8       C      0.300950000000     0.549700000000     0.950300000000     0          
C8       C      0.800950000000     0.049700000000     0.450300000000     0          
C8       C      0.800950000000     0.049700000000     0.950300000000     0          
C8       C      0.800950000000     0.549700000000     0.450300000000     0          
C8       C      0.800950000000     0.549700000000     0.950300000000     0          
C9       C      0.010750000000     0.187950000000     0.312050000000     0          
C9       C      0.010750000000     0.187950000000     0.812050000000     0          
C9       C      0.010750000000     0.687950000000     0.312050000000     0          
C9       C      0.010750000000     0.687950000000     0.812050000000     0          
C9       C      0.510750000000     0.187950000000     0.312050000000     0          
C9       C      0.510750000000     0.187950000000     0.812050000000     0          
C9       C      0.510750000000     0.687950000000     0.312050000000     0          
C9       C      0.510750000000     0.687950000000     0.812050000000     0          
C10      C      0.050950000000     0.200300000000     0.299700000000     0          
C10      C      0.050950000000     0.200300000000     0.799700000000     0          
C10      C      0.050950000000     0.700300000000     0.299700000000     0          
C10      C      0.050950000000     0.700300000000     0.799700000000     0          
C10      C      0.550950000000     0.200300000000     0.299700000000     0          
C10      C      0.550950000000     0.200300000000     0.799700000000     0          
C10      C      0.550950000000     0.700300000000     0.299700000000     0          
C10      C      0.550950000000     0.700300000000     0.799700000000     0          
C11      C      0.260750000000     0.437950000000     0.062050000000     0          
C11      C      0.260750000000     0.437950000000     0.562050000000     0          
C11      C      0.260750000000     0.937950000000     0.062050000000     0          
C11      C      0.260750000000     0.937950000000     0.562050000000     0          
C11      C      0.760750000000     0.437950000000     0.062050000000     0          
C11      C      0.760750000000     0.437950000000     0.562050000000     0          
C11      C      0.760750000000     0.937950000000     0.062050000000     0          
C11      C      0.760750000000     0.937950000000     0.562050000000     0          
C12      C      0.300950000000     0.450300000000     0.049700000000     0          
C12      C      0.300950000000     0.450300000000     0.549700000000     0          
C12      C      0.300950000000     0.950300000000     0.049700000000     0          
C12      C      0.300950000000     0.950300000000     0.549700000000     0          
C12      C      0.800950000000     0.450300000000     0.049700000000     0          
C12      C      0.800950000000     0.450300000000     0.549700000000     0          
C12      C      0.800950000000     0.950300000000     0.049700000000     0          
C12      C      0.800950000000     0.950300000000     0.549700000000     0          
C13      C      0.489250000000     0.312050000000     0.312050000000     0          
C13      C      0.489250000000     0.312050000000     0.812050000000     0          
C13      C      0.489250000000     0.812050000000     0.312050000000     0          
C13      C      0.489250000000     0.812050000000     0.812050000000     0          
C13      C      0.989250000000     0.312050000000     0.312050000000     0          
C13      C      0.989250000000     0.312050000000     0.812050000000     0          
C13      C      0.989250000000     0.812050000000     0.312050000000     0          
C13      C      0.989250000000     0.812050000000     0.812050000000     0          
C14      C      0.449050000000     0.299700000000     0.299700000000     0          
C14      C      0.449050000000     0.299700000000     0.799700000000     0          
C14      C      0.449050000000     0.799700000000     0.299700000000     0          
C14      C      0.449050000000     0.799700000000     0.799700000000     0          
C14      C      0.949050000000     0.299700000000     0.299700000000     0          
C14      C      0.949050000000     0.299700000000     0.799700000000     0          
C14      C      0.949050000000     0.799700000000     0.299700000000     0          
C14      C      0.949050000000     0.799700000000     0.799700000000     0          
C15      C      0.239250000000     0.062050000000     0.062050000000     0          
C15      C      0.239250000000     0.062050000000     0.562050000000     0          
C15      C      0.239250000000     0.562050000000     0.062050000000     0          
C15      C      0.239250000000     0.562050000000     0.562050000000     0          
C15      C      0.739250000000     0.062050000000     0.062050000000     0          
C15      C      0.739250000000     0.062050000000     0.562050000000     0          
C15      C      0.739250000000     0.562050000000     0.062050000000     0          
C15      C      0.739250000000     0.562050000000     0.562050000000     0          
C16      C      0.199050000000     0.049700000000     0.049700000000     0          
C16      C      0.199050000000     0.049700000000     0.549700000000     0          
C16      C      0.199050000000     0.549700000000     0.049700000000     0          
C16      C      0.199050000000     0.549700000000     0.549700000000     0          
C16      C      0.699050000000     0.049700000000     0.049700000000     0          
C16      C      0.699050000000     0.049700000000     0.549700000000     0          
C16      C      0.699050000000     0.549700000000     0.049700000000     0          
C16      C      0.699050000000     0.549700000000     0.549700000000     0          
C17      C      0.187950000000     0.489250000000     0.187950000000     0          
C17      C      0.187950000000     0.489250000000     0.687950000000     0          
C17      C      0.187950000000     0.989250000000     0.187950000000     0          
C17      C      0.187950000000     0.989250000000     0.687950000000     0          
C17      C      0.687950000000     0.489250000000     0.187950000000     0          
C17      C      0.687950000000     0.489250000000     0.687950000000     0          
C17      C      0.687950000000     0.989250000000     0.187950000000     0          
C17      C      0.687950000000     0.989250000000     0.687950000000     0          
C18      C      0.200300000000     0.449050000000     0.200300000000     0          
C18      C      0.200300000000     0.449050000000     0.700300000000     0          
C18      C      0.200300000000     0.949050000000     0.200300000000     0          
C18      C      0.200300000000     0.949050000000     0.700300000000     0          
C18      C      0.700300000000     0.449050000000     0.200300000000     0          
C18      C      0.700300000000     0.449050000000     0.700300000000     0          
C18      C      0.700300000000     0.949050000000     0.200300000000     0          
C18      C      0.700300000000     0.949050000000     0.700300000000     0          
C19      C      0.437950000000     0.239250000000     0.437950000000     0          
C19      C      0.437950000000     0.239250000000     0.937950000000     0          
C19      C      0.437950000000     0.739250000000     0.437950000000     0          
C19      C      0.437950000000     0.739250000000     0.937950000000     0          
C19      C      0.937950000000     0.239250000000     0.437950000000     0          
C19      C      0.937950000000     0.239250000000     0.937950000000     0          
C19      C      0.937950000000     0.739250000000     0.437950000000     0          
C19      C      0.937950000000     0.739250000000     0.937950000000     0          
C20      C      0.450300000000     0.199050000000     0.450300000000     0          
C20      C      0.450300000000     0.199050000000     0.950300000000     0          
C20      C      0.450300000000     0.699050000000     0.450300000000     0          
C20      C      0.450300000000     0.699050000000     0.950300000000     0          
C20      C      0.950300000000     0.199050000000     0.450300000000     0          
C20      C      0.950300000000     0.199050000000     0.950300000000     0          
C20      C      0.950300000000     0.699050000000     0.450300000000     0          
C20      C      0.950300000000     0.699050000000     0.950300000000     0          
C21      C      0.187950000000     0.010750000000     0.312050000000     0          
C21      C      0.187950000000     0.010750000000     0.812050000000     0          
C21      C      0.187950000000     0.510750000000     0.312050000000     0          
C21      C      0.187950000000     0.510750000000     0.812050000000     0          
C21      C      0.687950000000     0.010750000000     0.312050000000     0          
C21      C      0.687950000000     0.010750000000     0.812050000000     0          
C21      C      0.687950000000     0.510750000000     0.312050000000     0          
C21      C      0.687950000000     0.510750000000     0.812050000000     0          
C22      C      0.200300000000     0.050950000000     0.299700000000     0          
C22      C      0.200300000000     0.050950000000     0.799700000000     0          
C22      C      0.200300000000     0.550950000000     0.299700000000     0          
C22      C      0.200300000000     0.550950000000     0.799700000000     0          
C22      C      0.700300000000     0.050950000000     0.299700000000     0          
C22      C      0.700300000000     0.050950000000     0.799700000000     0          
C22      C      0.700300000000     0.550950000000     0.299700000000     0          
C22      C      0.700300000000     0.550950000000     0.799700000000     0          
C23      C      0.437950000000     0.260750000000     0.062050000000     0          
C23      C      0.437950000000     0.260750000000     0.562050000000     0          
C23      C      0.437950000000     0.760750000000     0.062050000000     0          
C23      C      0.437950000000     0.760750000000     0.562050000000     0          
C23      C      0.937950000000     0.260750000000     0.062050000000     0          
C23      C      0.937950000000     0.260750000000     0.562050000000     0          
C23      C      0.937950000000     0.760750000000     0.062050000000     0          
C23      C      0.937950000000     0.760750000000     0.562050000000     0          
C24      C      0.450300000000     0.300950000000     0.049700000000     0          
C24      C      0.450300000000     0.300950000000     0.549700000000     0          
C24      C      0.450300000000     0.800950000000     0.049700000000     0          
C24      C      0.450300000000     0.800950000000     0.549700000000     0          
C24      C      0.950300000000     0.300950000000     0.049700000000     0          
C24      C      0.950300000000     0.300950000000     0.549700000000     0          
C24      C      0.950300000000     0.800950000000     0.049700000000     0          
C24      C      0.950300000000     0.800950000000     0.549700000000     0          
C25      C      0.312050000000     0.010750000000     0.187950000000     0          
C25      C      0.312050000000     0.010750000000     0.687950000000     0          
C25      C      0.312050000000     0.510750000000     0.187950000000     0          
C25      C      0.312050000000     0.510750000000     0.687950000000     0          
C25      C      0.812050000000     0.010750000000     0.187950000000     0          
C25      C      0.812050000000     0.010750000000     0.687950000000     0          
C25      C      0.812050000000     0.510750000000     0.187950000000     0          
C25      C      0.812050000000     0.510750000000     0.687950000000     0          
C26      C      0.299700000000     0.050950000000     0.200300000000     0          
C26      C      0.299700000000     0.050950000000     0.700300000000     0          
C26      C      0.299700000000     0.550950000000     0.200300000000     0          
C26      C      0.299700000000     0.550950000000     0.700300000000     0          
C26      C      0.799700000000     0.050950000000     0.200300000000     0          
C26      C      0.799700000000     0.050950000000     0.700300000000     0          
C26      C      0.799700000000     0.550950000000     0.200300000000     0          
C26      C      0.799700000000     0.550950000000     0.700300000000     0          
C27      C      0.062050000000     0.260750000000     0.437950000000     0          
C27      C      0.062050000000     0.260750000000     0.937950000000     0          
C27      C      0.062050000000     0.760750000000     0.437950000000     0          
C27      C      0.062050000000     0.760750000000     0.937950000000     0          
C27      C      0.562050000000     0.260750000000     0.437950000000     0          
C27      C      0.562050000000     0.260750000000     0.937950000000     0          
C27      C      0.562050000000     0.760750000000     0.437950000000     0          
C27      C      0.562050000000     0.760750000000     0.937950000000     0          
C28      C      0.049700000000     0.300950000000     0.450300000000     0          
C28      C      0.049700000000     0.300950000000     0.950300000000     0          
C28      C      0.049700000000     0.800950000000     0.450300000000     0          
C28      C      0.049700000000     0.800950000000     0.950300000000     0          
C28      C      0.549700000000     0.300950000000     0.450300000000     0          
C28      C      0.549700000000     0.300950000000     0.950300000000     0          
C28      C      0.549700000000     0.800950000000     0.450300000000     0          
C28      C      0.549700000000     0.800950000000     0.950300000000     0          
C29      C      0.312050000000     0.489250000000     0.312050000000     0          
C29      C      0.312050000000     0.489250000000     0.812050000000     0          
C29      C      0.312050000000     0.989250000000     0.312050000000     0          
C29      C      0.312050000000     0.989250000000     0.812050000000     0          
C29      C      0.812050000000     0.489250000000     0.312050000000     0          
C29      C      0.812050000000     0.489250000000     0.812050000000     0          
C29      C      0.812050000000     0.989250000000     0.312050000000     0          
C29      C      0.812050000000     0.989250000000     0.812050000000     0          
C30      C      0.299700000000     0.449050000000     0.299700000000     0          
C30      C      0.299700000000     0.449050000000     0.799700000000     0          
C30      C      0.299700000000     0.949050000000     0.299700000000     0          
C30      C      0.299700000000     0.949050000000     0.799700000000     0          
C30      C      0.799700000000     0.449050000000     0.299700000000     0          
C30      C      0.799700000000     0.449050000000     0.799700000000     0          
C30      C      0.799700000000     0.949050000000     0.299700000000     0          
C30      C      0.799700000000     0.949050000000     0.799700000000     0          
C31      C      0.062050000000     0.239250000000     0.062050000000     0          
C31      C      0.062050000000     0.239250000000     0.562050000000     0          
C31      C      0.062050000000     0.739250000000     0.062050000000     0          
C31      C      0.062050000000     0.739250000000     0.562050000000     0          
C31      C      0.562050000000     0.239250000000     0.062050000000     0          
C31      C      0.562050000000     0.239250000000     0.562050000000     0          
C31      C      0.562050000000     0.739250000000     0.062050000000     0          
C31      C      0.562050000000     0.739250000000     0.562050000000     0          
C32      C      0.049700000000     0.199050000000     0.049700000000     0          
C32      C      0.049700000000     0.199050000000     0.549700000000     0          
C32      C      0.049700000000     0.699050000000     0.049700000000     0          
C32      C      0.049700000000     0.699050000000     0.549700000000     0          
C32      C      0.549700000000     0.199050000000     0.049700000000     0          
C32      C      0.549700000000     0.199050000000     0.549700000000     0          
C32      C      0.549700000000     0.699050000000     0.049700000000     0          
C32      C      0.549700000000     0.699050000000     0.549700000000     0          
C33      C      0.187950000000     0.187950000000     0.489250000000     0          
C33      C      0.187950000000     0.187950000000     0.989250000000     0          
C33      C      0.187950000000     0.687950000000     0.489250000000     0          
C33      C      0.187950000000     0.687950000000     0.989250000000     0          
C33      C      0.687950000000     0.187950000000     0.489250000000     0          
C33      C      0.687950000000     0.187950000000     0.989250000000     0          
C33      C      0.687950000000     0.687950000000     0.489250000000     0          
C33      C      0.687950000000     0.687950000000     0.989250000000     0          
C34      C      0.200300000000     0.200300000000     0.449050000000     0          
C34      C      0.200300000000     0.200300000000     0.949050000000     0          
C34      C      0.200300000000     0.700300000000     0.449050000000     0          
C34      C      0.200300000000     0.700300000000     0.949050000000     0          
C34      C      0.700300000000     0.200300000000     0.449050000000     0          
C34      C      0.700300000000     0.200300000000     0.949050000000     0          
C34      C      0.700300000000     0.700300000000     0.449050000000     0          
C34      C      0.700300000000     0.700300000000     0.949050000000     0          
C35      C      0.437950000000     0.437950000000     0.239250000000     0          
C35      C      0.437950000000     0.437950000000     0.739250000000     0          
C35      C      0.437950000000     0.937950000000     0.239250000000     0          
C35      C      0.437950000000     0.937950000000     0.739250000000     0          
C35      C      0.937950000000     0.437950000000     0.239250000000     0          
C35      C      0.937950000000     0.437950000000     0.739250000000     0          
C35      C      0.937950000000     0.937950000000     0.239250000000     0          
C35      C      0.937950000000     0.937950000000     0.739250000000     0          
C36      C      0.450300000000     0.450300000000     0.199050000000     0          
C36      C      0.450300000000     0.450300000000     0.699050000000     0          
C36      C      0.450300000000     0.950300000000     0.199050000000     0          
C36      C      0.450300000000     0.950300000000     0.699050000000     0          
C36      C      0.950300000000     0.450300000000     0.199050000000     0          
C36      C      0.950300000000     0.450300000000     0.699050000000     0          
C36      C      0.950300000000     0.950300000000     0.199050000000     0          
C36      C      0.950300000000     0.950300000000     0.699050000000     0          
C37      C      0.312050000000     0.187950000000     0.010750000000     0          
C37      C      0.312050000000     0.187950000000     0.510750000000     0          
C37      C      0.312050000000     0.687950000000     0.010750000000     0          
C37      C      0.312050000000     0.687950000000     0.510750000000     0          
C37      C      0.812050000000     0.187950000000     0.010750000000     0          
C37      C      0.812050000000     0.187950000000     0.510750000000     0          
C37      C      0.812050000000     0.687950000000     0.010750000000     0          
C37      C      0.812050000000     0.687950000000     0.510750000000     0          
C38      C      0.299700000000     0.200300000000     0.050950000000     0          
C38      C      0.299700000000     0.200300000000     0.550950000000     0          
C38      C      0.299700000000     0.700300000000     0.050950000000     0          
C38      C      0.299700000000     0.700300000000     0.550950000000     0          
C38      C      0.799700000000     0.200300000000     0.050950000000     0          
C38      C      0.799700000000     0.200300000000     0.550950000000     0          
C38      C      0.799700000000     0.700300000000     0.050950000000     0          
C38      C      0.799700000000     0.700300000000     0.550950000000     0          
C39      C      0.062050000000     0.437950000000     0.260750000000     0          
C39      C      0.062050000000     0.437950000000     0.760750000000     0          
C39      C      0.062050000000     0.937950000000     0.260750000000     0          
C39      C      0.062050000000     0.937950000000     0.760750000000     0          
C39      C      0.562050000000     0.437950000000     0.260750000000     0          
C39      C      0.562050000000     0.437950000000     0.760750000000     0          
C39      C      0.562050000000     0.937950000000     0.260750000000     0          
C39      C      0.562050000000     0.937950000000     0.760750000000     0          
C40      C      0.049700000000     0.450300000000     0.300950000000     0          
C40      C      0.049700000000     0.450300000000     0.800950000000     0          
C40      C      0.049700000000     0.950300000000     0.300950000000     0          
C40      C      0.049700000000     0.950300000000     0.800950000000     0          
C40      C      0.549700000000     0.450300000000     0.300950000000     0          
C40      C      0.549700000000     0.450300000000     0.800950000000     0          
C40      C      0.549700000000     0.950300000000     0.300950000000     0          
C40      C      0.549700000000     0.950300000000     0.800950000000     0          
C41      C      0.187950000000     0.312050000000     0.010750000000     0          
C41      C      0.187950000000     0.312050000000     0.510750000000     0          
C41      C      0.187950000000     0.812050000000     0.010750000000     0          
C41      C      0.187950000000     0.812050000000     0.510750000000     0          
C41      C      0.687950000000     0.312050000000     0.010750000000     0          
C41      C      0.687950000000     0.312050000000     0.510750000000     0          
C41      C      0.687950000000     0.812050000000     0.010750000000     0          
C41      C      0.687950000000     0.812050000000     0.510750000000     0          
C42      C      0.200300000000     0.299700000000     0.050950000000     0          
C42      C      0.200300000000     0.299700000000     0.550950000000     0          
C42      C      0.200300000000     0.799700000000     0.050950000000     0          
C42      C      0.200300000000     0.799700000000     0.550950000000     0          
C42      C      0.700300000000     0.299700000000     0.050950000000     0          
C42      C      0.700300000000     0.299700000000     0.550950000000     0          
C42      C      0.700300000000     0.799700000000     0.050950000000     0          
C42      C      0.700300000000     0.799700000000     0.550950000000     0          
C43      C      0.437950000000     0.062050000000     0.260750000000     0          
C43      C      0.437950000000     0.062050000000     0.760750000000     0          
C43      C      0.437950000000     0.562050000000     0.260750000000     0          
C43      C      0.437950000000     0.562050000000     0.760750000000     0          
C43      C      0.937950000000     0.062050000000     0.260750000000     0          
C43      C      0.937950000000     0.062050000000     0.760750000000     0          
C43      C      0.937950000000     0.562050000000     0.260750000000     0          
C43      C      0.937950000000     0.562050000000     0.760750000000     0          
C44      C      0.450300000000     0.049700000000     0.300950000000     0          
C44      C      0.450300000000     0.049700000000     0.800950000000     0          
C44      C      0.450300000000     0.549700000000     0.300950000000     0          
C44      C      0.450300000000     0.549700000000     0.800950000000     0          
C44      C      0.950300000000     0.049700000000     0.300950000000     0          
C44      C      0.950300000000     0.049700000000     0.800950000000     0          
C44      C      0.950300000000     0.549700000000     0.300950000000     0          
C44      C      0.950300000000     0.549700000000     0.800950000000     0          
C45      C      0.312050000000     0.312050000000     0.489250000000     0          
C45      C      0.312050000000     0.312050000000     0.989250000000     0          
C45      C      0.312050000000     0.812050000000     0.489250000000     0          
C45      C      0.312050000000     0.812050000000     0.989250000000     0          
C45      C      0.812050000000     0.312050000000     0.489250000000     0          
C45      C      0.812050000000     0.312050000000     0.989250000000     0          
C45      C      0.812050000000     0.812050000000     0.489250000000     0          
C45      C      0.812050000000     0.812050000000     0.989250000000     0          
C46      C      0.299700000000     0.299700000000     0.449050000000     0          
C46      C      0.299700000000     0.299700000000     0.949050000000     0          
C46      C      0.299700000000     0.799700000000     0.449050000000     0          
C46      C      0.299700000000     0.799700000000     0.949050000000     0          
C46      C      0.799700000000     0.299700000000     0.449050000000     0          
C46      C      0.799700000000     0.299700000000     0.949050000000     0          
C46      C      0.799700000000     0.799700000000     0.449050000000     0          
C46      C      0.799700000000     0.799700000000     0.949050000000     0          
C47      C      0.062050000000     0.062050000000     0.239250000000     0          
C47      C      0.062050000000     0.062050000000     0.739250000000     0          
C47      C      0.062050000000     0.562050000000     0.239250000000     0          
C47      C      0.062050000000     0.562050000000     0.739250000000     0          
C47      C      0.562050000000     0.062050000000     0.239250000000     0          
C47      C      0.562050000000     0.062050000000     0.739250000000     0          
C47      C      0.562050000000     0.562050000000     0.239250000000     0          
C47      C      0.562050000000     0.562050000000     0.739250000000     0          
C48      C      0.049700000000     0.049700000000     0.199050000000     0          
C48      C      0.049700000000     0.049700000000     0.699050000000     0          
C48      C      0.049700000000     0.549700000000     0.199050000000     0          
C48      C      0.049700000000     0.549700000000     0.699050000000     0          
C48      C      0.549700000000     0.049700000000     0.199050000000     0          
C48      C      0.549700000000     0.049700000000     0.699050000000     0          
C48      C      0.549700000000     0.549700000000     0.199050000000     0          
C48      C      0.549700000000     0.549700000000     0.699050000000     0          


