data_QAVPIO_clean

_audit_creation_method RASPA-1.0
_audit_creation_date 2025-1-23
_audit_author_name ''

_cell_length_a    5.0919
_cell_length_b    9.2528
_cell_length_c    12.74
_cell_angle_alpha 73.82
_cell_angle_beta  84.58
_cell_angle_gamma 74.13
_cell_volume      39915.5

_symmetry_cell_setting          triclinic
_symmetry_space_group_name_Hall 'P 1'
_symmetry_space_group_name_H-M  'P 1'
_symmetry_Int_Tables_number     1

_symmetry_equiv_pos_as_xyz 'x,y,z'

loop_
_atom_site_label
_atom_site_type_symbol
_atom_site_fract_x
_atom_site_fract_y
_atom_site_fract_z
_atom_site_charge
O        O      0.056350000000     0.001550000000     0.179966666667     2.35       
O        O      0.068933333333     0.246150000000     0.243700000000     2.35       
O        O      0.008200000000     0.232250000000     0.131900000000     2.35       
O        O      0.116783333333     0.014625000000     0.292066666667     2.35       
O        O      0.109200000000     0.165600000000     0.043566666667     2.35       
O        O      0.027950000000     0.011400000000     0.310533333333     2.35       
O        O      0.094933333333     0.190125000000     0.309233333333     2.35       
O        O      0.014166666667     0.081825000000     0.046400000000     2.35       
O        O      0.097183333333     0.239225000000     0.112833333333     2.35       
O        O      0.027300000000     0.058175000000     0.114166666667     2.35       
O        O      0.086000000000     0.082150000000     0.071933333333     2.35       
O        O      0.037633333333     0.164075000000     0.019533333333     2.35       
O        O      0.142000000000     0.227300000000     0.020666666667     2.35       
O        O      0.151616666667     0.019850000000     0.068700000000     2.35       
O        O      0.094716666667     0.048025000000     0.194966666667     2.35       
O        O      0.163133333333     0.196975000000     0.088500000000     2.35       
O        O      0.013483333333     0.127925000000     0.084733333333     2.35       
O        O      0.110716666667     0.119575000000     0.005066666667     2.35       
O        O      0.127050000000     0.050850000000     0.001400000000     2.35       
O        O      0.011800000000     0.055100000000     0.207200000000     2.35       
O        O      0.056350000000     0.001550000000     0.513300000000     2.35       
O        O      0.068933333333     0.246150000000     0.577033333333     2.35       
O        O      0.008200000000     0.232250000000     0.465233333333     2.35       
O        O      0.116783333333     0.014625000000     0.625400000000     2.35       
O        O      0.109200000000     0.165600000000     0.376900000000     2.35       
O        O      0.027950000000     0.011400000000     0.643866666667     2.35       
O        O      0.094933333333     0.190125000000     0.642566666667     2.35       
O        O      0.014166666667     0.081825000000     0.379733333333     2.35       
O        O      0.097183333333     0.239225000000     0.446166666667     2.35       
O        O      0.027300000000     0.058175000000     0.447500000000     2.35       
O        O      0.086000000000     0.082150000000     0.405266666667     2.35       
O        O      0.037633333333     0.164075000000     0.352866666667     2.35       
O        O      0.142000000000     0.227300000000     0.354000000000     2.35       
O        O      0.151616666667     0.019850000000     0.402033333333     2.35       
O        O      0.094716666667     0.048025000000     0.528300000000     2.35       
O        O      0.163133333333     0.196975000000     0.421833333333     2.35       
O        O      0.013483333333     0.127925000000     0.418066666667     2.35       
O        O      0.110716666667     0.119575000000     0.338400000000     2.35       
O        O      0.127050000000     0.050850000000     0.334733333333     2.35       
O        O      0.011800000000     0.055100000000     0.540533333333     2.35       
O        O      0.056350000000     0.001550000000     0.846633333333     2.35       
O        O      0.068933333333     0.246150000000     0.910366666667     2.35       
O        O      0.008200000000     0.232250000000     0.798566666667     2.35       
O        O      0.116783333333     0.014625000000     0.958733333333     2.35       
O        O      0.109200000000     0.165600000000     0.710233333333     2.35       
O        O      0.027950000000     0.011400000000     0.977200000000     2.35       
O        O      0.094933333333     0.190125000000     0.975900000000     2.35       
O        O      0.014166666667     0.081825000000     0.713066666667     2.35       
O        O      0.097183333333     0.239225000000     0.779500000000     2.35       
O        O      0.027300000000     0.058175000000     0.780833333333     2.35       
O        O      0.086000000000     0.082150000000     0.738600000000     2.35       
O        O      0.037633333333     0.164075000000     0.686200000000     2.35       
O        O      0.142000000000     0.227300000000     0.687333333333     2.35       
O        O      0.151616666667     0.019850000000     0.735366666667     2.35       
O        O      0.094716666667     0.048025000000     0.861633333333     2.35       
O        O      0.163133333333     0.196975000000     0.755166666667     2.35       
O        O      0.013483333333     0.127925000000     0.751400000000     2.35       
O        O      0.110716666667     0.119575000000     0.671733333333     2.35       
O        O      0.127050000000     0.050850000000     0.668066666667     2.35       
O        O      0.011800000000     0.055100000000     0.873866666667     2.35       
O        O      0.056350000000     0.251550000000     0.179966666667     2.35       
O        O      0.068933333333     0.496150000000     0.243700000000     2.35       
O        O      0.008200000000     0.482250000000     0.131900000000     2.35       
O        O      0.116783333333     0.264625000000     0.292066666667     2.35       
O        O      0.109200000000     0.415600000000     0.043566666667     2.35       
O        O      0.027950000000     0.261400000000     0.310533333333     2.35       
O        O      0.094933333333     0.440125000000     0.309233333333     2.35       
O        O      0.014166666667     0.331825000000     0.046400000000     2.35       
O        O      0.097183333333     0.489225000000     0.112833333333     2.35       
O        O      0.027300000000     0.308175000000     0.114166666667     2.35       
O        O      0.086000000000     0.332150000000     0.071933333333     2.35       
O        O      0.037633333333     0.414075000000     0.019533333333     2.35       
O        O      0.142000000000     0.477300000000     0.020666666667     2.35       
O        O      0.151616666667     0.269850000000     0.068700000000     2.35       
O        O      0.094716666667     0.298025000000     0.194966666667     2.35       
O        O      0.163133333333     0.446975000000     0.088500000000     2.35       
O        O      0.013483333333     0.377925000000     0.084733333333     2.35       
O        O      0.110716666667     0.369575000000     0.005066666667     2.35       
O        O      0.127050000000     0.300850000000     0.001400000000     2.35       
O        O      0.011800000000     0.305100000000     0.207200000000     2.35       
O        O      0.056350000000     0.251550000000     0.513300000000     2.35       
O        O      0.068933333333     0.496150000000     0.577033333333     2.35       
O        O      0.008200000000     0.482250000000     0.465233333333     2.35       
O        O      0.116783333333     0.264625000000     0.625400000000     2.35       
O        O      0.109200000000     0.415600000000     0.376900000000     2.35       
O        O      0.027950000000     0.261400000000     0.643866666667     2.35       
O        O      0.094933333333     0.440125000000     0.642566666667     2.35       
O        O      0.014166666667     0.331825000000     0.379733333333     2.35       
O        O      0.097183333333     0.489225000000     0.446166666667     2.35       
O        O      0.027300000000     0.308175000000     0.447500000000     2.35       
O        O      0.086000000000     0.332150000000     0.405266666667     2.35       
O        O      0.037633333333     0.414075000000     0.352866666667     2.35       
O        O      0.142000000000     0.477300000000     0.354000000000     2.35       
O        O      0.151616666667     0.269850000000     0.402033333333     2.35       
O        O      0.094716666667     0.298025000000     0.528300000000     2.35       
O        O      0.163133333333     0.446975000000     0.421833333333     2.35       
O        O      0.013483333333     0.377925000000     0.418066666667     2.35       
O        O      0.110716666667     0.369575000000     0.338400000000     2.35       
O        O      0.127050000000     0.300850000000     0.334733333333     2.35       
O        O      0.011800000000     0.305100000000     0.540533333333     2.35       
O        O      0.056350000000     0.251550000000     0.846633333333     2.35       
O        O      0.068933333333     0.496150000000     0.910366666667     2.35       
O        O      0.008200000000     0.482250000000     0.798566666667     2.35       
O        O      0.116783333333     0.264625000000     0.958733333333     2.35       
O        O      0.109200000000     0.415600000000     0.710233333333     2.35       
O        O      0.027950000000     0.261400000000     0.977200000000     2.35       
O        O      0.094933333333     0.440125000000     0.975900000000     2.35       
O        O      0.014166666667     0.331825000000     0.713066666667     2.35       
O        O      0.097183333333     0.489225000000     0.779500000000     2.35       
O        O      0.027300000000     0.308175000000     0.780833333333     2.35       
O        O      0.086000000000     0.332150000000     0.738600000000     2.35       
O        O      0.037633333333     0.414075000000     0.686200000000     2.35       
O        O      0.142000000000     0.477300000000     0.687333333333     2.35       
O        O      0.151616666667     0.269850000000     0.735366666667     2.35       
O        O      0.094716666667     0.298025000000     0.861633333333     2.35       
O        O      0.163133333333     0.446975000000     0.755166666667     2.35       
O        O      0.013483333333     0.377925000000     0.751400000000     2.35       
O        O      0.110716666667     0.369575000000     0.671733333333     2.35       
O        O      0.127050000000     0.300850000000     0.668066666667     2.35       
O        O      0.011800000000     0.305100000000     0.873866666667     2.35       
O        O      0.056350000000     0.501550000000     0.179966666667     2.35       
O        O      0.068933333333     0.746150000000     0.243700000000     2.35       
O        O      0.008200000000     0.732250000000     0.131900000000     2.35       
O        O      0.116783333333     0.514625000000     0.292066666667     2.35       
O        O      0.109200000000     0.665600000000     0.043566666667     2.35       
O        O      0.027950000000     0.511400000000     0.310533333333     2.35       
O        O      0.094933333333     0.690125000000     0.309233333333     2.35       
O        O      0.014166666667     0.581825000000     0.046400000000     2.35       
O        O      0.097183333333     0.739225000000     0.112833333333     2.35       
O        O      0.027300000000     0.558175000000     0.114166666667     2.35       
O        O      0.086000000000     0.582150000000     0.071933333333     2.35       
O        O      0.037633333333     0.664075000000     0.019533333333     2.35       
O        O      0.142000000000     0.727300000000     0.020666666667     2.35       
O        O      0.151616666667     0.519850000000     0.068700000000     2.35       
O        O      0.094716666667     0.548025000000     0.194966666667     2.35       
O        O      0.163133333333     0.696975000000     0.088500000000     2.35       
O        O      0.013483333333     0.627925000000     0.084733333333     2.35       
O        O      0.110716666667     0.619575000000     0.005066666667     2.35       
O        O      0.127050000000     0.550850000000     0.001400000000     2.35       
O        O      0.011800000000     0.555100000000     0.207200000000     2.35       
O        O      0.056350000000     0.501550000000     0.513300000000     2.35       
O        O      0.068933333333     0.746150000000     0.577033333333     2.35       
O        O      0.008200000000     0.732250000000     0.465233333333     2.35       
O        O      0.116783333333     0.514625000000     0.625400000000     2.35       
O        O      0.109200000000     0.665600000000     0.376900000000     2.35       
O        O      0.027950000000     0.511400000000     0.643866666667     2.35       
O        O      0.094933333333     0.690125000000     0.642566666667     2.35       
O        O      0.014166666667     0.581825000000     0.379733333333     2.35       
O        O      0.097183333333     0.739225000000     0.446166666667     2.35       
O        O      0.027300000000     0.558175000000     0.447500000000     2.35       
O        O      0.086000000000     0.582150000000     0.405266666667     2.35       
O        O      0.037633333333     0.664075000000     0.352866666667     2.35       
O        O      0.142000000000     0.727300000000     0.354000000000     2.35       
O        O      0.151616666667     0.519850000000     0.402033333333     2.35       
O        O      0.094716666667     0.548025000000     0.528300000000     2.35       
O        O      0.163133333333     0.696975000000     0.421833333333     2.35       
O        O      0.013483333333     0.627925000000     0.418066666667     2.35       
O        O      0.110716666667     0.619575000000     0.338400000000     2.35       
O        O      0.127050000000     0.550850000000     0.334733333333     2.35       
O        O      0.011800000000     0.555100000000     0.540533333333     2.35       
O        O      0.056350000000     0.501550000000     0.846633333333     2.35       
O        O      0.068933333333     0.746150000000     0.910366666667     2.35       
O        O      0.008200000000     0.732250000000     0.798566666667     2.35       
O        O      0.116783333333     0.514625000000     0.958733333333     2.35       
O        O      0.109200000000     0.665600000000     0.710233333333     2.35       
O        O      0.027950000000     0.511400000000     0.977200000000     2.35       
O        O      0.094933333333     0.690125000000     0.975900000000     2.35       
O        O      0.014166666667     0.581825000000     0.713066666667     2.35       
O        O      0.097183333333     0.739225000000     0.779500000000     2.35       
O        O      0.027300000000     0.558175000000     0.780833333333     2.35       
O        O      0.086000000000     0.582150000000     0.738600000000     2.35       
O        O      0.037633333333     0.664075000000     0.686200000000     2.35       
O        O      0.142000000000     0.727300000000     0.687333333333     2.35       
O        O      0.151616666667     0.519850000000     0.735366666667     2.35       
O        O      0.094716666667     0.548025000000     0.861633333333     2.35       
O        O      0.163133333333     0.696975000000     0.755166666667     2.35       
O        O      0.013483333333     0.627925000000     0.751400000000     2.35       
O        O      0.110716666667     0.619575000000     0.671733333333     2.35       
O        O      0.127050000000     0.550850000000     0.668066666667     2.35       
O        O      0.011800000000     0.555100000000     0.873866666667     2.35       
O        O      0.056350000000     0.751550000000     0.179966666667     2.35       
O        O      0.068933333333     0.996150000000     0.243700000000     2.35       
O        O      0.008200000000     0.982250000000     0.131900000000     2.35       
O        O      0.116783333333     0.764625000000     0.292066666667     2.35       
O        O      0.109200000000     0.915600000000     0.043566666667     2.35       
O        O      0.027950000000     0.761400000000     0.310533333333     2.35       
O        O      0.094933333333     0.940125000000     0.309233333333     2.35       
O        O      0.014166666667     0.831825000000     0.046400000000     2.35       
O        O      0.097183333333     0.989225000000     0.112833333333     2.35       
O        O      0.027300000000     0.808175000000     0.114166666667     2.35       
O        O      0.086000000000     0.832150000000     0.071933333333     2.35       
O        O      0.037633333333     0.914075000000     0.019533333333     2.35       
O        O      0.142000000000     0.977300000000     0.020666666667     2.35       
O        O      0.151616666667     0.769850000000     0.068700000000     2.35       
O        O      0.094716666667     0.798025000000     0.194966666667     2.35       
O        O      0.163133333333     0.946975000000     0.088500000000     2.35       
O        O      0.013483333333     0.877925000000     0.084733333333     2.35       
O        O      0.110716666667     0.869575000000     0.005066666667     2.35       
O        O      0.127050000000     0.800850000000     0.001400000000     2.35       
O        O      0.011800000000     0.805100000000     0.207200000000     2.35       
O        O      0.056350000000     0.751550000000     0.513300000000     2.35       
O        O      0.068933333333     0.996150000000     0.577033333333     2.35       
O        O      0.008200000000     0.982250000000     0.465233333333     2.35       
O        O      0.116783333333     0.764625000000     0.625400000000     2.35       
O        O      0.109200000000     0.915600000000     0.376900000000     2.35       
O        O      0.027950000000     0.761400000000     0.643866666667     2.35       
O        O      0.094933333333     0.940125000000     0.642566666667     2.35       
O        O      0.014166666667     0.831825000000     0.379733333333     2.35       
O        O      0.097183333333     0.989225000000     0.446166666667     2.35       
O        O      0.027300000000     0.808175000000     0.447500000000     2.35       
O        O      0.086000000000     0.832150000000     0.405266666667     2.35       
O        O      0.037633333333     0.914075000000     0.352866666667     2.35       
O        O      0.142000000000     0.977300000000     0.354000000000     2.35       
O        O      0.151616666667     0.769850000000     0.402033333333     2.35       
O        O      0.094716666667     0.798025000000     0.528300000000     2.35       
O        O      0.163133333333     0.946975000000     0.421833333333     2.35       
O        O      0.013483333333     0.877925000000     0.418066666667     2.35       
O        O      0.110716666667     0.869575000000     0.338400000000     2.35       
O        O      0.127050000000     0.800850000000     0.334733333333     2.35       
O        O      0.011800000000     0.805100000000     0.540533333333     2.35       
O        O      0.056350000000     0.751550000000     0.846633333333     2.35       
O        O      0.068933333333     0.996150000000     0.910366666667     2.35       
O        O      0.008200000000     0.982250000000     0.798566666667     2.35       
O        O      0.116783333333     0.764625000000     0.958733333333     2.35       
O        O      0.109200000000     0.915600000000     0.710233333333     2.35       
O        O      0.027950000000     0.761400000000     0.977200000000     2.35       
O        O      0.094933333333     0.940125000000     0.975900000000     2.35       
O        O      0.014166666667     0.831825000000     0.713066666667     2.35       
O        O      0.097183333333     0.989225000000     0.779500000000     2.35       
O        O      0.027300000000     0.808175000000     0.780833333333     2.35       
O        O      0.086000000000     0.832150000000     0.738600000000     2.35       
O        O      0.037633333333     0.914075000000     0.686200000000     2.35       
O        O      0.142000000000     0.977300000000     0.687333333333     2.35       
O        O      0.151616666667     0.769850000000     0.735366666667     2.35       
O        O      0.094716666667     0.798025000000     0.861633333333     2.35       
O        O      0.163133333333     0.946975000000     0.755166666667     2.35       
O        O      0.013483333333     0.877925000000     0.751400000000     2.35       
O        O      0.110716666667     0.869575000000     0.671733333333     2.35       
O        O      0.127050000000     0.800850000000     0.668066666667     2.35       
O        O      0.011800000000     0.805100000000     0.873866666667     2.35       
O        O      0.223016666667     0.001550000000     0.179966666667     2.35       
O        O      0.235600000000     0.246150000000     0.243700000000     2.35       
O        O      0.174866666667     0.232250000000     0.131900000000     2.35       
O        O      0.283450000000     0.014625000000     0.292066666667     2.35       
O        O      0.275866666667     0.165600000000     0.043566666667     2.35       
O        O      0.194616666667     0.011400000000     0.310533333333     2.35       
O        O      0.261600000000     0.190125000000     0.309233333333     2.35       
O        O      0.180833333333     0.081825000000     0.046400000000     2.35       
O        O      0.263850000000     0.239225000000     0.112833333333     2.35       
O        O      0.193966666667     0.058175000000     0.114166666667     2.35       
O        O      0.252666666667     0.082150000000     0.071933333333     2.35       
O        O      0.204300000000     0.164075000000     0.019533333333     2.35       
O        O      0.308666666667     0.227300000000     0.020666666667     2.35       
O        O      0.318283333333     0.019850000000     0.068700000000     2.35       
O        O      0.261383333333     0.048025000000     0.194966666667     2.35       
O        O      0.329800000000     0.196975000000     0.088500000000     2.35       
O        O      0.180150000000     0.127925000000     0.084733333333     2.35       
O        O      0.277383333333     0.119575000000     0.005066666667     2.35       
O        O      0.293716666667     0.050850000000     0.001400000000     2.35       
O        O      0.178466666667     0.055100000000     0.207200000000     2.35       
O        O      0.223016666667     0.001550000000     0.513300000000     2.35       
O        O      0.235600000000     0.246150000000     0.577033333333     2.35       
O        O      0.174866666667     0.232250000000     0.465233333333     2.35       
O        O      0.283450000000     0.014625000000     0.625400000000     2.35       
O        O      0.275866666667     0.165600000000     0.376900000000     2.35       
O        O      0.194616666667     0.011400000000     0.643866666667     2.35       
O        O      0.261600000000     0.190125000000     0.642566666667     2.35       
O        O      0.180833333333     0.081825000000     0.379733333333     2.35       
O        O      0.263850000000     0.239225000000     0.446166666667     2.35       
O        O      0.193966666667     0.058175000000     0.447500000000     2.35       
O        O      0.252666666667     0.082150000000     0.405266666667     2.35       
O        O      0.204300000000     0.164075000000     0.352866666667     2.35       
O        O      0.308666666667     0.227300000000     0.354000000000     2.35       
O        O      0.318283333333     0.019850000000     0.402033333333     2.35       
O        O      0.261383333333     0.048025000000     0.528300000000     2.35       
O        O      0.329800000000     0.196975000000     0.421833333333     2.35       
O        O      0.180150000000     0.127925000000     0.418066666667     2.35       
O        O      0.277383333333     0.119575000000     0.338400000000     2.35       
O        O      0.293716666667     0.050850000000     0.334733333333     2.35       
O        O      0.178466666667     0.055100000000     0.540533333333     2.35       
O        O      0.223016666667     0.001550000000     0.846633333333     2.35       
O        O      0.235600000000     0.246150000000     0.910366666667     2.35       
O        O      0.174866666667     0.232250000000     0.798566666667     2.35       
O        O      0.283450000000     0.014625000000     0.958733333333     2.35       
O        O      0.275866666667     0.165600000000     0.710233333333     2.35       
O        O      0.194616666667     0.011400000000     0.977200000000     2.35       
O        O      0.261600000000     0.190125000000     0.975900000000     2.35       
O        O      0.180833333333     0.081825000000     0.713066666667     2.35       
O        O      0.263850000000     0.239225000000     0.779500000000     2.35       
O        O      0.193966666667     0.058175000000     0.780833333333     2.35       
O        O      0.252666666667     0.082150000000     0.738600000000     2.35       
O        O      0.204300000000     0.164075000000     0.686200000000     2.35       
O        O      0.308666666667     0.227300000000     0.687333333333     2.35       
O        O      0.318283333333     0.019850000000     0.735366666667     2.35       
O        O      0.261383333333     0.048025000000     0.861633333333     2.35       
O        O      0.329800000000     0.196975000000     0.755166666667     2.35       
O        O      0.180150000000     0.127925000000     0.751400000000     2.35       
O        O      0.277383333333     0.119575000000     0.671733333333     2.35       
O        O      0.293716666667     0.050850000000     0.668066666667     2.35       
O        O      0.178466666667     0.055100000000     0.873866666667     2.35       
O        O      0.223016666667     0.251550000000     0.179966666667     2.35       
O        O      0.235600000000     0.496150000000     0.243700000000     2.35       
O        O      0.174866666667     0.482250000000     0.131900000000     2.35       
O        O      0.283450000000     0.264625000000     0.292066666667     2.35       
O        O      0.275866666667     0.415600000000     0.043566666667     2.35       
O        O      0.194616666667     0.261400000000     0.310533333333     2.35       
O        O      0.261600000000     0.440125000000     0.309233333333     2.35       
O        O      0.180833333333     0.331825000000     0.046400000000     2.35       
O        O      0.263850000000     0.489225000000     0.112833333333     2.35       
O        O      0.193966666667     0.308175000000     0.114166666667     2.35       
O        O      0.252666666667     0.332150000000     0.071933333333     2.35       
O        O      0.204300000000     0.414075000000     0.019533333333     2.35       
O        O      0.308666666667     0.477300000000     0.020666666667     2.35       
O        O      0.318283333333     0.269850000000     0.068700000000     2.35       
O        O      0.261383333333     0.298025000000     0.194966666667     2.35       
O        O      0.329800000000     0.446975000000     0.088500000000     2.35       
O        O      0.180150000000     0.377925000000     0.084733333333     2.35       
O        O      0.277383333333     0.369575000000     0.005066666667     2.35       
O        O      0.293716666667     0.300850000000     0.001400000000     2.35       
O        O      0.178466666667     0.305100000000     0.207200000000     2.35       
O        O      0.223016666667     0.251550000000     0.513300000000     2.35       
O        O      0.235600000000     0.496150000000     0.577033333333     2.35       
O        O      0.174866666667     0.482250000000     0.465233333333     2.35       
O        O      0.283450000000     0.264625000000     0.625400000000     2.35       
O        O      0.275866666667     0.415600000000     0.376900000000     2.35       
O        O      0.194616666667     0.261400000000     0.643866666667     2.35       
O        O      0.261600000000     0.440125000000     0.642566666667     2.35       
O        O      0.180833333333     0.331825000000     0.379733333333     2.35       
O        O      0.263850000000     0.489225000000     0.446166666667     2.35       
O        O      0.193966666667     0.308175000000     0.447500000000     2.35       
O        O      0.252666666667     0.332150000000     0.405266666667     2.35       
O        O      0.204300000000     0.414075000000     0.352866666667     2.35       
O        O      0.308666666667     0.477300000000     0.354000000000     2.35       
O        O      0.318283333333     0.269850000000     0.402033333333     2.35       
O        O      0.261383333333     0.298025000000     0.528300000000     2.35       
O        O      0.329800000000     0.446975000000     0.421833333333     2.35       
O        O      0.180150000000     0.377925000000     0.418066666667     2.35       
O        O      0.277383333333     0.369575000000     0.338400000000     2.35       
O        O      0.293716666667     0.300850000000     0.334733333333     2.35       
O        O      0.178466666667     0.305100000000     0.540533333333     2.35       
O        O      0.223016666667     0.251550000000     0.846633333333     2.35       
O        O      0.235600000000     0.496150000000     0.910366666667     2.35       
O        O      0.174866666667     0.482250000000     0.798566666667     2.35       
O        O      0.283450000000     0.264625000000     0.958733333333     2.35       
O        O      0.275866666667     0.415600000000     0.710233333333     2.35       
O        O      0.194616666667     0.261400000000     0.977200000000     2.35       
O        O      0.261600000000     0.440125000000     0.975900000000     2.35       
O        O      0.180833333333     0.331825000000     0.713066666667     2.35       
O        O      0.263850000000     0.489225000000     0.779500000000     2.35       
O        O      0.193966666667     0.308175000000     0.780833333333     2.35       
O        O      0.252666666667     0.332150000000     0.738600000000     2.35       
O        O      0.204300000000     0.414075000000     0.686200000000     2.35       
O        O      0.308666666667     0.477300000000     0.687333333333     2.35       
O        O      0.318283333333     0.269850000000     0.735366666667     2.35       
O        O      0.261383333333     0.298025000000     0.861633333333     2.35       
O        O      0.329800000000     0.446975000000     0.755166666667     2.35       
O        O      0.180150000000     0.377925000000     0.751400000000     2.35       
O        O      0.277383333333     0.369575000000     0.671733333333     2.35       
O        O      0.293716666667     0.300850000000     0.668066666667     2.35       
O        O      0.178466666667     0.305100000000     0.873866666667     2.35       
O        O      0.223016666667     0.501550000000     0.179966666667     2.35       
O        O      0.235600000000     0.746150000000     0.243700000000     2.35       
O        O      0.174866666667     0.732250000000     0.131900000000     2.35       
O        O      0.283450000000     0.514625000000     0.292066666667     2.35       
O        O      0.275866666667     0.665600000000     0.043566666667     2.35       
O        O      0.194616666667     0.511400000000     0.310533333333     2.35       
O        O      0.261600000000     0.690125000000     0.309233333333     2.35       
O        O      0.180833333333     0.581825000000     0.046400000000     2.35       
O        O      0.263850000000     0.739225000000     0.112833333333     2.35       
O        O      0.193966666667     0.558175000000     0.114166666667     2.35       
O        O      0.252666666667     0.582150000000     0.071933333333     2.35       
O        O      0.204300000000     0.664075000000     0.019533333333     2.35       
O        O      0.308666666667     0.727300000000     0.020666666667     2.35       
O        O      0.318283333333     0.519850000000     0.068700000000     2.35       
O        O      0.261383333333     0.548025000000     0.194966666667     2.35       
O        O      0.329800000000     0.696975000000     0.088500000000     2.35       
O        O      0.180150000000     0.627925000000     0.084733333333     2.35       
O        O      0.277383333333     0.619575000000     0.005066666667     2.35       
O        O      0.293716666667     0.550850000000     0.001400000000     2.35       
O        O      0.178466666667     0.555100000000     0.207200000000     2.35       
O        O      0.223016666667     0.501550000000     0.513300000000     2.35       
O        O      0.235600000000     0.746150000000     0.577033333333     2.35       
O        O      0.174866666667     0.732250000000     0.465233333333     2.35       
O        O      0.283450000000     0.514625000000     0.625400000000     2.35       
O        O      0.275866666667     0.665600000000     0.376900000000     2.35       
O        O      0.194616666667     0.511400000000     0.643866666667     2.35       
O        O      0.261600000000     0.690125000000     0.642566666667     2.35       
O        O      0.180833333333     0.581825000000     0.379733333333     2.35       
O        O      0.263850000000     0.739225000000     0.446166666667     2.35       
O        O      0.193966666667     0.558175000000     0.447500000000     2.35       
O        O      0.252666666667     0.582150000000     0.405266666667     2.35       
O        O      0.204300000000     0.664075000000     0.352866666667     2.35       
O        O      0.308666666667     0.727300000000     0.354000000000     2.35       
O        O      0.318283333333     0.519850000000     0.402033333333     2.35       
O        O      0.261383333333     0.548025000000     0.528300000000     2.35       
O        O      0.329800000000     0.696975000000     0.421833333333     2.35       
O        O      0.180150000000     0.627925000000     0.418066666667     2.35       
O        O      0.277383333333     0.619575000000     0.338400000000     2.35       
O        O      0.293716666667     0.550850000000     0.334733333333     2.35       
O        O      0.178466666667     0.555100000000     0.540533333333     2.35       
O        O      0.223016666667     0.501550000000     0.846633333333     2.35       
O        O      0.235600000000     0.746150000000     0.910366666667     2.35       
O        O      0.174866666667     0.732250000000     0.798566666667     2.35       
O        O      0.283450000000     0.514625000000     0.958733333333     2.35       
O        O      0.275866666667     0.665600000000     0.710233333333     2.35       
O        O      0.194616666667     0.511400000000     0.977200000000     2.35       
O        O      0.261600000000     0.690125000000     0.975900000000     2.35       
O        O      0.180833333333     0.581825000000     0.713066666667     2.35       
O        O      0.263850000000     0.739225000000     0.779500000000     2.35       
O        O      0.193966666667     0.558175000000     0.780833333333     2.35       
O        O      0.252666666667     0.582150000000     0.738600000000     2.35       
O        O      0.204300000000     0.664075000000     0.686200000000     2.35       
O        O      0.308666666667     0.727300000000     0.687333333333     2.35       
O        O      0.318283333333     0.519850000000     0.735366666667     2.35       
O        O      0.261383333333     0.548025000000     0.861633333333     2.35       
O        O      0.329800000000     0.696975000000     0.755166666667     2.35       
O        O      0.180150000000     0.627925000000     0.751400000000     2.35       
O        O      0.277383333333     0.619575000000     0.671733333333     2.35       
O        O      0.293716666667     0.550850000000     0.668066666667     2.35       
O        O      0.178466666667     0.555100000000     0.873866666667     2.35       
O        O      0.223016666667     0.751550000000     0.179966666667     2.35       
O        O      0.235600000000     0.996150000000     0.243700000000     2.35       
O        O      0.174866666667     0.982250000000     0.131900000000     2.35       
O        O      0.283450000000     0.764625000000     0.292066666667     2.35       
O        O      0.275866666667     0.915600000000     0.043566666667     2.35       
O        O      0.194616666667     0.761400000000     0.310533333333     2.35       
O        O      0.261600000000     0.940125000000     0.309233333333     2.35       
O        O      0.180833333333     0.831825000000     0.046400000000     2.35       
O        O      0.263850000000     0.989225000000     0.112833333333     2.35       
O        O      0.193966666667     0.808175000000     0.114166666667     2.35       
O        O      0.252666666667     0.832150000000     0.071933333333     2.35       
O        O      0.204300000000     0.914075000000     0.019533333333     2.35       
O        O      0.308666666667     0.977300000000     0.020666666667     2.35       
O        O      0.318283333333     0.769850000000     0.068700000000     2.35       
O        O      0.261383333333     0.798025000000     0.194966666667     2.35       
O        O      0.329800000000     0.946975000000     0.088500000000     2.35       
O        O      0.180150000000     0.877925000000     0.084733333333     2.35       
O        O      0.277383333333     0.869575000000     0.005066666667     2.35       
O        O      0.293716666667     0.800850000000     0.001400000000     2.35       
O        O      0.178466666667     0.805100000000     0.207200000000     2.35       
O        O      0.223016666667     0.751550000000     0.513300000000     2.35       
O        O      0.235600000000     0.996150000000     0.577033333333     2.35       
O        O      0.174866666667     0.982250000000     0.465233333333     2.35       
O        O      0.283450000000     0.764625000000     0.625400000000     2.35       
O        O      0.275866666667     0.915600000000     0.376900000000     2.35       
O        O      0.194616666667     0.761400000000     0.643866666667     2.35       
O        O      0.261600000000     0.940125000000     0.642566666667     2.35       
O        O      0.180833333333     0.831825000000     0.379733333333     2.35       
O        O      0.263850000000     0.989225000000     0.446166666667     2.35       
O        O      0.193966666667     0.808175000000     0.447500000000     2.35       
O        O      0.252666666667     0.832150000000     0.405266666667     2.35       
O        O      0.204300000000     0.914075000000     0.352866666667     2.35       
O        O      0.308666666667     0.977300000000     0.354000000000     2.35       
O        O      0.318283333333     0.769850000000     0.402033333333     2.35       
O        O      0.261383333333     0.798025000000     0.528300000000     2.35       
O        O      0.329800000000     0.946975000000     0.421833333333     2.35       
O        O      0.180150000000     0.877925000000     0.418066666667     2.35       
O        O      0.277383333333     0.869575000000     0.338400000000     2.35       
O        O      0.293716666667     0.800850000000     0.334733333333     2.35       
O        O      0.178466666667     0.805100000000     0.540533333333     2.35       
O        O      0.223016666667     0.751550000000     0.846633333333     2.35       
O        O      0.235600000000     0.996150000000     0.910366666667     2.35       
O        O      0.174866666667     0.982250000000     0.798566666667     2.35       
O        O      0.283450000000     0.764625000000     0.958733333333     2.35       
O        O      0.275866666667     0.915600000000     0.710233333333     2.35       
O        O      0.194616666667     0.761400000000     0.977200000000     2.35       
O        O      0.261600000000     0.940125000000     0.975900000000     2.35       
O        O      0.180833333333     0.831825000000     0.713066666667     2.35       
O        O      0.263850000000     0.989225000000     0.779500000000     2.35       
O        O      0.193966666667     0.808175000000     0.780833333333     2.35       
O        O      0.252666666667     0.832150000000     0.738600000000     2.35       
O        O      0.204300000000     0.914075000000     0.686200000000     2.35       
O        O      0.308666666667     0.977300000000     0.687333333333     2.35       
O        O      0.318283333333     0.769850000000     0.735366666667     2.35       
O        O      0.261383333333     0.798025000000     0.861633333333     2.35       
O        O      0.329800000000     0.946975000000     0.755166666667     2.35       
O        O      0.180150000000     0.877925000000     0.751400000000     2.35       
O        O      0.277383333333     0.869575000000     0.671733333333     2.35       
O        O      0.293716666667     0.800850000000     0.668066666667     2.35       
O        O      0.178466666667     0.805100000000     0.873866666667     2.35       
O        O      0.389683333333     0.001550000000     0.179966666667     2.35       
O        O      0.402266666667     0.246150000000     0.243700000000     2.35       
O        O      0.341533333333     0.232250000000     0.131900000000     2.35       
O        O      0.450116666667     0.014625000000     0.292066666667     2.35       
O        O      0.442533333333     0.165600000000     0.043566666667     2.35       
O        O      0.361283333333     0.011400000000     0.310533333333     2.35       
O        O      0.428266666667     0.190125000000     0.309233333333     2.35       
O        O      0.347500000000     0.081825000000     0.046400000000     2.35       
O        O      0.430516666667     0.239225000000     0.112833333333     2.35       
O        O      0.360633333333     0.058175000000     0.114166666667     2.35       
O        O      0.419333333333     0.082150000000     0.071933333333     2.35       
O        O      0.370966666667     0.164075000000     0.019533333333     2.35       
O        O      0.475333333333     0.227300000000     0.020666666667     2.35       
O        O      0.484950000000     0.019850000000     0.068700000000     2.35       
O        O      0.428050000000     0.048025000000     0.194966666667     2.35       
O        O      0.496466666667     0.196975000000     0.088500000000     2.35       
O        O      0.346816666667     0.127925000000     0.084733333333     2.35       
O        O      0.444050000000     0.119575000000     0.005066666667     2.35       
O        O      0.460383333333     0.050850000000     0.001400000000     2.35       
O        O      0.345133333333     0.055100000000     0.207200000000     2.35       
O        O      0.389683333333     0.001550000000     0.513300000000     2.35       
O        O      0.402266666667     0.246150000000     0.577033333333     2.35       
O        O      0.341533333333     0.232250000000     0.465233333333     2.35       
O        O      0.450116666667     0.014625000000     0.625400000000     2.35       
O        O      0.442533333333     0.165600000000     0.376900000000     2.35       
O        O      0.361283333333     0.011400000000     0.643866666667     2.35       
O        O      0.428266666667     0.190125000000     0.642566666667     2.35       
O        O      0.347500000000     0.081825000000     0.379733333333     2.35       
O        O      0.430516666667     0.239225000000     0.446166666667     2.35       
O        O      0.360633333333     0.058175000000     0.447500000000     2.35       
O        O      0.419333333333     0.082150000000     0.405266666667     2.35       
O        O      0.370966666667     0.164075000000     0.352866666667     2.35       
O        O      0.475333333333     0.227300000000     0.354000000000     2.35       
O        O      0.484950000000     0.019850000000     0.402033333333     2.35       
O        O      0.428050000000     0.048025000000     0.528300000000     2.35       
O        O      0.496466666667     0.196975000000     0.421833333333     2.35       
O        O      0.346816666667     0.127925000000     0.418066666667     2.35       
O        O      0.444050000000     0.119575000000     0.338400000000     2.35       
O        O      0.460383333333     0.050850000000     0.334733333333     2.35       
O        O      0.345133333333     0.055100000000     0.540533333333     2.35       
O        O      0.389683333333     0.001550000000     0.846633333333     2.35       
O        O      0.402266666667     0.246150000000     0.910366666667     2.35       
O        O      0.341533333333     0.232250000000     0.798566666667     2.35       
O        O      0.450116666667     0.014625000000     0.958733333333     2.35       
O        O      0.442533333333     0.165600000000     0.710233333333     2.35       
O        O      0.361283333333     0.011400000000     0.977200000000     2.35       
O        O      0.428266666667     0.190125000000     0.975900000000     2.35       
O        O      0.347500000000     0.081825000000     0.713066666667     2.35       
O        O      0.430516666667     0.239225000000     0.779500000000     2.35       
O        O      0.360633333333     0.058175000000     0.780833333333     2.35       
O        O      0.419333333333     0.082150000000     0.738600000000     2.35       
O        O      0.370966666667     0.164075000000     0.686200000000     2.35       
O        O      0.475333333333     0.227300000000     0.687333333333     2.35       
O        O      0.484950000000     0.019850000000     0.735366666667     2.35       
O        O      0.428050000000     0.048025000000     0.861633333333     2.35       
O        O      0.496466666667     0.196975000000     0.755166666667     2.35       
O        O      0.346816666667     0.127925000000     0.751400000000     2.35       
O        O      0.444050000000     0.119575000000     0.671733333333     2.35       
O        O      0.460383333333     0.050850000000     0.668066666667     2.35       
O        O      0.345133333333     0.055100000000     0.873866666667     2.35       
O        O      0.389683333333     0.251550000000     0.179966666667     2.35       
O        O      0.402266666667     0.496150000000     0.243700000000     2.35       
O        O      0.341533333333     0.482250000000     0.131900000000     2.35       
O        O      0.450116666667     0.264625000000     0.292066666667     2.35       
O        O      0.442533333333     0.415600000000     0.043566666667     2.35       
O        O      0.361283333333     0.261400000000     0.310533333333     2.35       
O        O      0.428266666667     0.440125000000     0.309233333333     2.35       
O        O      0.347500000000     0.331825000000     0.046400000000     2.35       
O        O      0.430516666667     0.489225000000     0.112833333333     2.35       
O        O      0.360633333333     0.308175000000     0.114166666667     2.35       
O        O      0.419333333333     0.332150000000     0.071933333333     2.35       
O        O      0.370966666667     0.414075000000     0.019533333333     2.35       
O        O      0.475333333333     0.477300000000     0.020666666667     2.35       
O        O      0.484950000000     0.269850000000     0.068700000000     2.35       
O        O      0.428050000000     0.298025000000     0.194966666667     2.35       
O        O      0.496466666667     0.446975000000     0.088500000000     2.35       
O        O      0.346816666667     0.377925000000     0.084733333333     2.35       
O        O      0.444050000000     0.369575000000     0.005066666667     2.35       
O        O      0.460383333333     0.300850000000     0.001400000000     2.35       
O        O      0.345133333333     0.305100000000     0.207200000000     2.35       
O        O      0.389683333333     0.251550000000     0.513300000000     2.35       
O        O      0.402266666667     0.496150000000     0.577033333333     2.35       
O        O      0.341533333333     0.482250000000     0.465233333333     2.35       
O        O      0.450116666667     0.264625000000     0.625400000000     2.35       
O        O      0.442533333333     0.415600000000     0.376900000000     2.35       
O        O      0.361283333333     0.261400000000     0.643866666667     2.35       
O        O      0.428266666667     0.440125000000     0.642566666667     2.35       
O        O      0.347500000000     0.331825000000     0.379733333333     2.35       
O        O      0.430516666667     0.489225000000     0.446166666667     2.35       
O        O      0.360633333333     0.308175000000     0.447500000000     2.35       
O        O      0.419333333333     0.332150000000     0.405266666667     2.35       
O        O      0.370966666667     0.414075000000     0.352866666667     2.35       
O        O      0.475333333333     0.477300000000     0.354000000000     2.35       
O        O      0.484950000000     0.269850000000     0.402033333333     2.35       
O        O      0.428050000000     0.298025000000     0.528300000000     2.35       
O        O      0.496466666667     0.446975000000     0.421833333333     2.35       
O        O      0.346816666667     0.377925000000     0.418066666667     2.35       
O        O      0.444050000000     0.369575000000     0.338400000000     2.35       
O        O      0.460383333333     0.300850000000     0.334733333333     2.35       
O        O      0.345133333333     0.305100000000     0.540533333333     2.35       
O        O      0.389683333333     0.251550000000     0.846633333333     2.35       
O        O      0.402266666667     0.496150000000     0.910366666667     2.35       
O        O      0.341533333333     0.482250000000     0.798566666667     2.35       
O        O      0.450116666667     0.264625000000     0.958733333333     2.35       
O        O      0.442533333333     0.415600000000     0.710233333333     2.35       
O        O      0.361283333333     0.261400000000     0.977200000000     2.35       
O        O      0.428266666667     0.440125000000     0.975900000000     2.35       
O        O      0.347500000000     0.331825000000     0.713066666667     2.35       
O        O      0.430516666667     0.489225000000     0.779500000000     2.35       
O        O      0.360633333333     0.308175000000     0.780833333333     2.35       
O        O      0.419333333333     0.332150000000     0.738600000000     2.35       
O        O      0.370966666667     0.414075000000     0.686200000000     2.35       
O        O      0.475333333333     0.477300000000     0.687333333333     2.35       
O        O      0.484950000000     0.269850000000     0.735366666667     2.35       
O        O      0.428050000000     0.298025000000     0.861633333333     2.35       
O        O      0.496466666667     0.446975000000     0.755166666667     2.35       
O        O      0.346816666667     0.377925000000     0.751400000000     2.35       
O        O      0.444050000000     0.369575000000     0.671733333333     2.35       
O        O      0.460383333333     0.300850000000     0.668066666667     2.35       
O        O      0.345133333333     0.305100000000     0.873866666667     2.35       
O        O      0.389683333333     0.501550000000     0.179966666667     2.35       
O        O      0.402266666667     0.746150000000     0.243700000000     2.35       
O        O      0.341533333333     0.732250000000     0.131900000000     2.35       
O        O      0.450116666667     0.514625000000     0.292066666667     2.35       
O        O      0.442533333333     0.665600000000     0.043566666667     2.35       
O        O      0.361283333333     0.511400000000     0.310533333333     2.35       
O        O      0.428266666667     0.690125000000     0.309233333333     2.35       
O        O      0.347500000000     0.581825000000     0.046400000000     2.35       
O        O      0.430516666667     0.739225000000     0.112833333333     2.35       
O        O      0.360633333333     0.558175000000     0.114166666667     2.35       
O        O      0.419333333333     0.582150000000     0.071933333333     2.35       
O        O      0.370966666667     0.664075000000     0.019533333333     2.35       
O        O      0.475333333333     0.727300000000     0.020666666667     2.35       
O        O      0.484950000000     0.519850000000     0.068700000000     2.35       
O        O      0.428050000000     0.548025000000     0.194966666667     2.35       
O        O      0.496466666667     0.696975000000     0.088500000000     2.35       
O        O      0.346816666667     0.627925000000     0.084733333333     2.35       
O        O      0.444050000000     0.619575000000     0.005066666667     2.35       
O        O      0.460383333333     0.550850000000     0.001400000000     2.35       
O        O      0.345133333333     0.555100000000     0.207200000000     2.35       
O        O      0.389683333333     0.501550000000     0.513300000000     2.35       
O        O      0.402266666667     0.746150000000     0.577033333333     2.35       
O        O      0.341533333333     0.732250000000     0.465233333333     2.35       
O        O      0.450116666667     0.514625000000     0.625400000000     2.35       
O        O      0.442533333333     0.665600000000     0.376900000000     2.35       
O        O      0.361283333333     0.511400000000     0.643866666667     2.35       
O        O      0.428266666667     0.690125000000     0.642566666667     2.35       
O        O      0.347500000000     0.581825000000     0.379733333333     2.35       
O        O      0.430516666667     0.739225000000     0.446166666667     2.35       
O        O      0.360633333333     0.558175000000     0.447500000000     2.35       
O        O      0.419333333333     0.582150000000     0.405266666667     2.35       
O        O      0.370966666667     0.664075000000     0.352866666667     2.35       
O        O      0.475333333333     0.727300000000     0.354000000000     2.35       
O        O      0.484950000000     0.519850000000     0.402033333333     2.35       
O        O      0.428050000000     0.548025000000     0.528300000000     2.35       
O        O      0.496466666667     0.696975000000     0.421833333333     2.35       
O        O      0.346816666667     0.627925000000     0.418066666667     2.35       
O        O      0.444050000000     0.619575000000     0.338400000000     2.35       
O        O      0.460383333333     0.550850000000     0.334733333333     2.35       
O        O      0.345133333333     0.555100000000     0.540533333333     2.35       
O        O      0.389683333333     0.501550000000     0.846633333333     2.35       
O        O      0.402266666667     0.746150000000     0.910366666667     2.35       
O        O      0.341533333333     0.732250000000     0.798566666667     2.35       
O        O      0.450116666667     0.514625000000     0.958733333333     2.35       
O        O      0.442533333333     0.665600000000     0.710233333333     2.35       
O        O      0.361283333333     0.511400000000     0.977200000000     2.35       
O        O      0.428266666667     0.690125000000     0.975900000000     2.35       
O        O      0.347500000000     0.581825000000     0.713066666667     2.35       
O        O      0.430516666667     0.739225000000     0.779500000000     2.35       
O        O      0.360633333333     0.558175000000     0.780833333333     2.35       
O        O      0.419333333333     0.582150000000     0.738600000000     2.35       
O        O      0.370966666667     0.664075000000     0.686200000000     2.35       
O        O      0.475333333333     0.727300000000     0.687333333333     2.35       
O        O      0.484950000000     0.519850000000     0.735366666667     2.35       
O        O      0.428050000000     0.548025000000     0.861633333333     2.35       
O        O      0.496466666667     0.696975000000     0.755166666667     2.35       
O        O      0.346816666667     0.627925000000     0.751400000000     2.35       
O        O      0.444050000000     0.619575000000     0.671733333333     2.35       
O        O      0.460383333333     0.550850000000     0.668066666667     2.35       
O        O      0.345133333333     0.555100000000     0.873866666667     2.35       
O        O      0.389683333333     0.751550000000     0.179966666667     2.35       
O        O      0.402266666667     0.996150000000     0.243700000000     2.35       
O        O      0.341533333333     0.982250000000     0.131900000000     2.35       
O        O      0.450116666667     0.764625000000     0.292066666667     2.35       
O        O      0.442533333333     0.915600000000     0.043566666667     2.35       
O        O      0.361283333333     0.761400000000     0.310533333333     2.35       
O        O      0.428266666667     0.940125000000     0.309233333333     2.35       
O        O      0.347500000000     0.831825000000     0.046400000000     2.35       
O        O      0.430516666667     0.989225000000     0.112833333333     2.35       
O        O      0.360633333333     0.808175000000     0.114166666667     2.35       
O        O      0.419333333333     0.832150000000     0.071933333333     2.35       
O        O      0.370966666667     0.914075000000     0.019533333333     2.35       
O        O      0.475333333333     0.977300000000     0.020666666667     2.35       
O        O      0.484950000000     0.769850000000     0.068700000000     2.35       
O        O      0.428050000000     0.798025000000     0.194966666667     2.35       
O        O      0.496466666667     0.946975000000     0.088500000000     2.35       
O        O      0.346816666667     0.877925000000     0.084733333333     2.35       
O        O      0.444050000000     0.869575000000     0.005066666667     2.35       
O        O      0.460383333333     0.800850000000     0.001400000000     2.35       
O        O      0.345133333333     0.805100000000     0.207200000000     2.35       
O        O      0.389683333333     0.751550000000     0.513300000000     2.35       
O        O      0.402266666667     0.996150000000     0.577033333333     2.35       
O        O      0.341533333333     0.982250000000     0.465233333333     2.35       
O        O      0.450116666667     0.764625000000     0.625400000000     2.35       
O        O      0.442533333333     0.915600000000     0.376900000000     2.35       
O        O      0.361283333333     0.761400000000     0.643866666667     2.35       
O        O      0.428266666667     0.940125000000     0.642566666667     2.35       
O        O      0.347500000000     0.831825000000     0.379733333333     2.35       
O        O      0.430516666667     0.989225000000     0.446166666667     2.35       
O        O      0.360633333333     0.808175000000     0.447500000000     2.35       
O        O      0.419333333333     0.832150000000     0.405266666667     2.35       
O        O      0.370966666667     0.914075000000     0.352866666667     2.35       
O        O      0.475333333333     0.977300000000     0.354000000000     2.35       
O        O      0.484950000000     0.769850000000     0.402033333333     2.35       
O        O      0.428050000000     0.798025000000     0.528300000000     2.35       
O        O      0.496466666667     0.946975000000     0.421833333333     2.35       
O        O      0.346816666667     0.877925000000     0.418066666667     2.35       
O        O      0.444050000000     0.869575000000     0.338400000000     2.35       
O        O      0.460383333333     0.800850000000     0.334733333333     2.35       
O        O      0.345133333333     0.805100000000     0.540533333333     2.35       
O        O      0.389683333333     0.751550000000     0.846633333333     2.35       
O        O      0.402266666667     0.996150000000     0.910366666667     2.35       
O        O      0.341533333333     0.982250000000     0.798566666667     2.35       
O        O      0.450116666667     0.764625000000     0.958733333333     2.35       
O        O      0.442533333333     0.915600000000     0.710233333333     2.35       
O        O      0.361283333333     0.761400000000     0.977200000000     2.35       
O        O      0.428266666667     0.940125000000     0.975900000000     2.35       
O        O      0.347500000000     0.831825000000     0.713066666667     2.35       
O        O      0.430516666667     0.989225000000     0.779500000000     2.35       
O        O      0.360633333333     0.808175000000     0.780833333333     2.35       
O        O      0.419333333333     0.832150000000     0.738600000000     2.35       
O        O      0.370966666667     0.914075000000     0.686200000000     2.35       
O        O      0.475333333333     0.977300000000     0.687333333333     2.35       
O        O      0.484950000000     0.769850000000     0.735366666667     2.35       
O        O      0.428050000000     0.798025000000     0.861633333333     2.35       
O        O      0.496466666667     0.946975000000     0.755166666667     2.35       
O        O      0.346816666667     0.877925000000     0.751400000000     2.35       
O        O      0.444050000000     0.869575000000     0.671733333333     2.35       
O        O      0.460383333333     0.800850000000     0.668066666667     2.35       
O        O      0.345133333333     0.805100000000     0.873866666667     2.35       
O        O      0.556350000000     0.001550000000     0.179966666667     2.35       
O        O      0.568933333333     0.246150000000     0.243700000000     2.35       
O        O      0.508200000000     0.232250000000     0.131900000000     2.35       
O        O      0.616783333333     0.014625000000     0.292066666667     2.35       
O        O      0.609200000000     0.165600000000     0.043566666667     2.35       
O        O      0.527950000000     0.011400000000     0.310533333333     2.35       
O        O      0.594933333333     0.190125000000     0.309233333333     2.35       
O        O      0.514166666667     0.081825000000     0.046400000000     2.35       
O        O      0.597183333333     0.239225000000     0.112833333333     2.35       
O        O      0.527300000000     0.058175000000     0.114166666667     2.35       
O        O      0.586000000000     0.082150000000     0.071933333333     2.35       
O        O      0.537633333333     0.164075000000     0.019533333333     2.35       
O        O      0.642000000000     0.227300000000     0.020666666667     2.35       
O        O      0.651616666667     0.019850000000     0.068700000000     2.35       
O        O      0.594716666667     0.048025000000     0.194966666667     2.35       
O        O      0.663133333333     0.196975000000     0.088500000000     2.35       
O        O      0.513483333333     0.127925000000     0.084733333333     2.35       
O        O      0.610716666667     0.119575000000     0.005066666667     2.35       
O        O      0.627050000000     0.050850000000     0.001400000000     2.35       
O        O      0.511800000000     0.055100000000     0.207200000000     2.35       
O        O      0.556350000000     0.001550000000     0.513300000000     2.35       
O        O      0.568933333333     0.246150000000     0.577033333333     2.35       
O        O      0.508200000000     0.232250000000     0.465233333333     2.35       
O        O      0.616783333333     0.014625000000     0.625400000000     2.35       
O        O      0.609200000000     0.165600000000     0.376900000000     2.35       
O        O      0.527950000000     0.011400000000     0.643866666667     2.35       
O        O      0.594933333333     0.190125000000     0.642566666667     2.35       
O        O      0.514166666667     0.081825000000     0.379733333333     2.35       
O        O      0.597183333333     0.239225000000     0.446166666667     2.35       
O        O      0.527300000000     0.058175000000     0.447500000000     2.35       
O        O      0.586000000000     0.082150000000     0.405266666667     2.35       
O        O      0.537633333333     0.164075000000     0.352866666667     2.35       
O        O      0.642000000000     0.227300000000     0.354000000000     2.35       
O        O      0.651616666667     0.019850000000     0.402033333333     2.35       
O        O      0.594716666667     0.048025000000     0.528300000000     2.35       
O        O      0.663133333333     0.196975000000     0.421833333333     2.35       
O        O      0.513483333333     0.127925000000     0.418066666667     2.35       
O        O      0.610716666667     0.119575000000     0.338400000000     2.35       
O        O      0.627050000000     0.050850000000     0.334733333333     2.35       
O        O      0.511800000000     0.055100000000     0.540533333333     2.35       
O        O      0.556350000000     0.001550000000     0.846633333333     2.35       
O        O      0.568933333333     0.246150000000     0.910366666667     2.35       
O        O      0.508200000000     0.232250000000     0.798566666667     2.35       
O        O      0.616783333333     0.014625000000     0.958733333333     2.35       
O        O      0.609200000000     0.165600000000     0.710233333333     2.35       
O        O      0.527950000000     0.011400000000     0.977200000000     2.35       
O        O      0.594933333333     0.190125000000     0.975900000000     2.35       
O        O      0.514166666667     0.081825000000     0.713066666667     2.35       
O        O      0.597183333333     0.239225000000     0.779500000000     2.35       
O        O      0.527300000000     0.058175000000     0.780833333333     2.35       
O        O      0.586000000000     0.082150000000     0.738600000000     2.35       
O        O      0.537633333333     0.164075000000     0.686200000000     2.35       
O        O      0.642000000000     0.227300000000     0.687333333333     2.35       
O        O      0.651616666667     0.019850000000     0.735366666667     2.35       
O        O      0.594716666667     0.048025000000     0.861633333333     2.35       
O        O      0.663133333333     0.196975000000     0.755166666667     2.35       
O        O      0.513483333333     0.127925000000     0.751400000000     2.35       
O        O      0.610716666667     0.119575000000     0.671733333333     2.35       
O        O      0.627050000000     0.050850000000     0.668066666667     2.35       
O        O      0.511800000000     0.055100000000     0.873866666667     2.35       
O        O      0.556350000000     0.251550000000     0.179966666667     2.35       
O        O      0.568933333333     0.496150000000     0.243700000000     2.35       
O        O      0.508200000000     0.482250000000     0.131900000000     2.35       
O        O      0.616783333333     0.264625000000     0.292066666667     2.35       
O        O      0.609200000000     0.415600000000     0.043566666667     2.35       
O        O      0.527950000000     0.261400000000     0.310533333333     2.35       
O        O      0.594933333333     0.440125000000     0.309233333333     2.35       
O        O      0.514166666667     0.331825000000     0.046400000000     2.35       
O        O      0.597183333333     0.489225000000     0.112833333333     2.35       
O        O      0.527300000000     0.308175000000     0.114166666667     2.35       
O        O      0.586000000000     0.332150000000     0.071933333333     2.35       
O        O      0.537633333333     0.414075000000     0.019533333333     2.35       
O        O      0.642000000000     0.477300000000     0.020666666667     2.35       
O        O      0.651616666667     0.269850000000     0.068700000000     2.35       
O        O      0.594716666667     0.298025000000     0.194966666667     2.35       
O        O      0.663133333333     0.446975000000     0.088500000000     2.35       
O        O      0.513483333333     0.377925000000     0.084733333333     2.35       
O        O      0.610716666667     0.369575000000     0.005066666667     2.35       
O        O      0.627050000000     0.300850000000     0.001400000000     2.35       
O        O      0.511800000000     0.305100000000     0.207200000000     2.35       
O        O      0.556350000000     0.251550000000     0.513300000000     2.35       
O        O      0.568933333333     0.496150000000     0.577033333333     2.35       
O        O      0.508200000000     0.482250000000     0.465233333333     2.35       
O        O      0.616783333333     0.264625000000     0.625400000000     2.35       
O        O      0.609200000000     0.415600000000     0.376900000000     2.35       
O        O      0.527950000000     0.261400000000     0.643866666667     2.35       
O        O      0.594933333333     0.440125000000     0.642566666667     2.35       
O        O      0.514166666667     0.331825000000     0.379733333333     2.35       
O        O      0.597183333333     0.489225000000     0.446166666667     2.35       
O        O      0.527300000000     0.308175000000     0.447500000000     2.35       
O        O      0.586000000000     0.332150000000     0.405266666667     2.35       
O        O      0.537633333333     0.414075000000     0.352866666667     2.35       
O        O      0.642000000000     0.477300000000     0.354000000000     2.35       
O        O      0.651616666667     0.269850000000     0.402033333333     2.35       
O        O      0.594716666667     0.298025000000     0.528300000000     2.35       
O        O      0.663133333333     0.446975000000     0.421833333333     2.35       
O        O      0.513483333333     0.377925000000     0.418066666667     2.35       
O        O      0.610716666667     0.369575000000     0.338400000000     2.35       
O        O      0.627050000000     0.300850000000     0.334733333333     2.35       
O        O      0.511800000000     0.305100000000     0.540533333333     2.35       
O        O      0.556350000000     0.251550000000     0.846633333333     2.35       
O        O      0.568933333333     0.496150000000     0.910366666667     2.35       
O        O      0.508200000000     0.482250000000     0.798566666667     2.35       
O        O      0.616783333333     0.264625000000     0.958733333333     2.35       
O        O      0.609200000000     0.415600000000     0.710233333333     2.35       
O        O      0.527950000000     0.261400000000     0.977200000000     2.35       
O        O      0.594933333333     0.440125000000     0.975900000000     2.35       
O        O      0.514166666667     0.331825000000     0.713066666667     2.35       
O        O      0.597183333333     0.489225000000     0.779500000000     2.35       
O        O      0.527300000000     0.308175000000     0.780833333333     2.35       
O        O      0.586000000000     0.332150000000     0.738600000000     2.35       
O        O      0.537633333333     0.414075000000     0.686200000000     2.35       
O        O      0.642000000000     0.477300000000     0.687333333333     2.35       
O        O      0.651616666667     0.269850000000     0.735366666667     2.35       
O        O      0.594716666667     0.298025000000     0.861633333333     2.35       
O        O      0.663133333333     0.446975000000     0.755166666667     2.35       
O        O      0.513483333333     0.377925000000     0.751400000000     2.35       
O        O      0.610716666667     0.369575000000     0.671733333333     2.35       
O        O      0.627050000000     0.300850000000     0.668066666667     2.35       
O        O      0.511800000000     0.305100000000     0.873866666667     2.35       
O        O      0.556350000000     0.501550000000     0.179966666667     2.35       
O        O      0.568933333333     0.746150000000     0.243700000000     2.35       
O        O      0.508200000000     0.732250000000     0.131900000000     2.35       
O        O      0.616783333333     0.514625000000     0.292066666667     2.35       
O        O      0.609200000000     0.665600000000     0.043566666667     2.35       
O        O      0.527950000000     0.511400000000     0.310533333333     2.35       
O        O      0.594933333333     0.690125000000     0.309233333333     2.35       
O        O      0.514166666667     0.581825000000     0.046400000000     2.35       
O        O      0.597183333333     0.739225000000     0.112833333333     2.35       
O        O      0.527300000000     0.558175000000     0.114166666667     2.35       
O        O      0.586000000000     0.582150000000     0.071933333333     2.35       
O        O      0.537633333333     0.664075000000     0.019533333333     2.35       
O        O      0.642000000000     0.727300000000     0.020666666667     2.35       
O        O      0.651616666667     0.519850000000     0.068700000000     2.35       
O        O      0.594716666667     0.548025000000     0.194966666667     2.35       
O        O      0.663133333333     0.696975000000     0.088500000000     2.35       
O        O      0.513483333333     0.627925000000     0.084733333333     2.35       
O        O      0.610716666667     0.619575000000     0.005066666667     2.35       
O        O      0.627050000000     0.550850000000     0.001400000000     2.35       
O        O      0.511800000000     0.555100000000     0.207200000000     2.35       
O        O      0.556350000000     0.501550000000     0.513300000000     2.35       
O        O      0.568933333333     0.746150000000     0.577033333333     2.35       
O        O      0.508200000000     0.732250000000     0.465233333333     2.35       
O        O      0.616783333333     0.514625000000     0.625400000000     2.35       
O        O      0.609200000000     0.665600000000     0.376900000000     2.35       
O        O      0.527950000000     0.511400000000     0.643866666667     2.35       
O        O      0.594933333333     0.690125000000     0.642566666667     2.35       
O        O      0.514166666667     0.581825000000     0.379733333333     2.35       
O        O      0.597183333333     0.739225000000     0.446166666667     2.35       
O        O      0.527300000000     0.558175000000     0.447500000000     2.35       
O        O      0.586000000000     0.582150000000     0.405266666667     2.35       
O        O      0.537633333333     0.664075000000     0.352866666667     2.35       
O        O      0.642000000000     0.727300000000     0.354000000000     2.35       
O        O      0.651616666667     0.519850000000     0.402033333333     2.35       
O        O      0.594716666667     0.548025000000     0.528300000000     2.35       
O        O      0.663133333333     0.696975000000     0.421833333333     2.35       
O        O      0.513483333333     0.627925000000     0.418066666667     2.35       
O        O      0.610716666667     0.619575000000     0.338400000000     2.35       
O        O      0.627050000000     0.550850000000     0.334733333333     2.35       
O        O      0.511800000000     0.555100000000     0.540533333333     2.35       
O        O      0.556350000000     0.501550000000     0.846633333333     2.35       
O        O      0.568933333333     0.746150000000     0.910366666667     2.35       
O        O      0.508200000000     0.732250000000     0.798566666667     2.35       
O        O      0.616783333333     0.514625000000     0.958733333333     2.35       
O        O      0.609200000000     0.665600000000     0.710233333333     2.35       
O        O      0.527950000000     0.511400000000     0.977200000000     2.35       
O        O      0.594933333333     0.690125000000     0.975900000000     2.35       
O        O      0.514166666667     0.581825000000     0.713066666667     2.35       
O        O      0.597183333333     0.739225000000     0.779500000000     2.35       
O        O      0.527300000000     0.558175000000     0.780833333333     2.35       
O        O      0.586000000000     0.582150000000     0.738600000000     2.35       
O        O      0.537633333333     0.664075000000     0.686200000000     2.35       
O        O      0.642000000000     0.727300000000     0.687333333333     2.35       
O        O      0.651616666667     0.519850000000     0.735366666667     2.35       
O        O      0.594716666667     0.548025000000     0.861633333333     2.35       
O        O      0.663133333333     0.696975000000     0.755166666667     2.35       
O        O      0.513483333333     0.627925000000     0.751400000000     2.35       
O        O      0.610716666667     0.619575000000     0.671733333333     2.35       
O        O      0.627050000000     0.550850000000     0.668066666667     2.35       
O        O      0.511800000000     0.555100000000     0.873866666667     2.35       
O        O      0.556350000000     0.751550000000     0.179966666667     2.35       
O        O      0.568933333333     0.996150000000     0.243700000000     2.35       
O        O      0.508200000000     0.982250000000     0.131900000000     2.35       
O        O      0.616783333333     0.764625000000     0.292066666667     2.35       
O        O      0.609200000000     0.915600000000     0.043566666667     2.35       
O        O      0.527950000000     0.761400000000     0.310533333333     2.35       
O        O      0.594933333333     0.940125000000     0.309233333333     2.35       
O        O      0.514166666667     0.831825000000     0.046400000000     2.35       
O        O      0.597183333333     0.989225000000     0.112833333333     2.35       
O        O      0.527300000000     0.808175000000     0.114166666667     2.35       
O        O      0.586000000000     0.832150000000     0.071933333333     2.35       
O        O      0.537633333333     0.914075000000     0.019533333333     2.35       
O        O      0.642000000000     0.977300000000     0.020666666667     2.35       
O        O      0.651616666667     0.769850000000     0.068700000000     2.35       
O        O      0.594716666667     0.798025000000     0.194966666667     2.35       
O        O      0.663133333333     0.946975000000     0.088500000000     2.35       
O        O      0.513483333333     0.877925000000     0.084733333333     2.35       
O        O      0.610716666667     0.869575000000     0.005066666667     2.35       
O        O      0.627050000000     0.800850000000     0.001400000000     2.35       
O        O      0.511800000000     0.805100000000     0.207200000000     2.35       
O        O      0.556350000000     0.751550000000     0.513300000000     2.35       
O        O      0.568933333333     0.996150000000     0.577033333333     2.35       
O        O      0.508200000000     0.982250000000     0.465233333333     2.35       
O        O      0.616783333333     0.764625000000     0.625400000000     2.35       
O        O      0.609200000000     0.915600000000     0.376900000000     2.35       
O        O      0.527950000000     0.761400000000     0.643866666667     2.35       
O        O      0.594933333333     0.940125000000     0.642566666667     2.35       
O        O      0.514166666667     0.831825000000     0.379733333333     2.35       
O        O      0.597183333333     0.989225000000     0.446166666667     2.35       
O        O      0.527300000000     0.808175000000     0.447500000000     2.35       
O        O      0.586000000000     0.832150000000     0.405266666667     2.35       
O        O      0.537633333333     0.914075000000     0.352866666667     2.35       
O        O      0.642000000000     0.977300000000     0.354000000000     2.35       
O        O      0.651616666667     0.769850000000     0.402033333333     2.35       
O        O      0.594716666667     0.798025000000     0.528300000000     2.35       
O        O      0.663133333333     0.946975000000     0.421833333333     2.35       
O        O      0.513483333333     0.877925000000     0.418066666667     2.35       
O        O      0.610716666667     0.869575000000     0.338400000000     2.35       
O        O      0.627050000000     0.800850000000     0.334733333333     2.35       
O        O      0.511800000000     0.805100000000     0.540533333333     2.35       
O        O      0.556350000000     0.751550000000     0.846633333333     2.35       
O        O      0.568933333333     0.996150000000     0.910366666667     2.35       
O        O      0.508200000000     0.982250000000     0.798566666667     2.35       
O        O      0.616783333333     0.764625000000     0.958733333333     2.35       
O        O      0.609200000000     0.915600000000     0.710233333333     2.35       
O        O      0.527950000000     0.761400000000     0.977200000000     2.35       
O        O      0.594933333333     0.940125000000     0.975900000000     2.35       
O        O      0.514166666667     0.831825000000     0.713066666667     2.35       
O        O      0.597183333333     0.989225000000     0.779500000000     2.35       
O        O      0.527300000000     0.808175000000     0.780833333333     2.35       
O        O      0.586000000000     0.832150000000     0.738600000000     2.35       
O        O      0.537633333333     0.914075000000     0.686200000000     2.35       
O        O      0.642000000000     0.977300000000     0.687333333333     2.35       
O        O      0.651616666667     0.769850000000     0.735366666667     2.35       
O        O      0.594716666667     0.798025000000     0.861633333333     2.35       
O        O      0.663133333333     0.946975000000     0.755166666667     2.35       
O        O      0.513483333333     0.877925000000     0.751400000000     2.35       
O        O      0.610716666667     0.869575000000     0.671733333333     2.35       
O        O      0.627050000000     0.800850000000     0.668066666667     2.35       
O        O      0.511800000000     0.805100000000     0.873866666667     2.35       
O        O      0.723016666667     0.001550000000     0.179966666667     2.35       
O        O      0.735600000000     0.246150000000     0.243700000000     2.35       
O        O      0.674866666667     0.232250000000     0.131900000000     2.35       
O        O      0.783450000000     0.014625000000     0.292066666667     2.35       
O        O      0.775866666667     0.165600000000     0.043566666667     2.35       
O        O      0.694616666667     0.011400000000     0.310533333333     2.35       
O        O      0.761600000000     0.190125000000     0.309233333333     2.35       
O        O      0.680833333333     0.081825000000     0.046400000000     2.35       
O        O      0.763850000000     0.239225000000     0.112833333333     2.35       
O        O      0.693966666667     0.058175000000     0.114166666667     2.35       
O        O      0.752666666667     0.082150000000     0.071933333333     2.35       
O        O      0.704300000000     0.164075000000     0.019533333333     2.35       
O        O      0.808666666667     0.227300000000     0.020666666667     2.35       
O        O      0.818283333333     0.019850000000     0.068700000000     2.35       
O        O      0.761383333333     0.048025000000     0.194966666667     2.35       
O        O      0.829800000000     0.196975000000     0.088500000000     2.35       
O        O      0.680150000000     0.127925000000     0.084733333333     2.35       
O        O      0.777383333333     0.119575000000     0.005066666667     2.35       
O        O      0.793716666667     0.050850000000     0.001400000000     2.35       
O        O      0.678466666667     0.055100000000     0.207200000000     2.35       
O        O      0.723016666667     0.001550000000     0.513300000000     2.35       
O        O      0.735600000000     0.246150000000     0.577033333333     2.35       
O        O      0.674866666667     0.232250000000     0.465233333333     2.35       
O        O      0.783450000000     0.014625000000     0.625400000000     2.35       
O        O      0.775866666667     0.165600000000     0.376900000000     2.35       
O        O      0.694616666667     0.011400000000     0.643866666667     2.35       
O        O      0.761600000000     0.190125000000     0.642566666667     2.35       
O        O      0.680833333333     0.081825000000     0.379733333333     2.35       
O        O      0.763850000000     0.239225000000     0.446166666667     2.35       
O        O      0.693966666667     0.058175000000     0.447500000000     2.35       
O        O      0.752666666667     0.082150000000     0.405266666667     2.35       
O        O      0.704300000000     0.164075000000     0.352866666667     2.35       
O        O      0.808666666667     0.227300000000     0.354000000000     2.35       
O        O      0.818283333333     0.019850000000     0.402033333333     2.35       
O        O      0.761383333333     0.048025000000     0.528300000000     2.35       
O        O      0.829800000000     0.196975000000     0.421833333333     2.35       
O        O      0.680150000000     0.127925000000     0.418066666667     2.35       
O        O      0.777383333333     0.119575000000     0.338400000000     2.35       
O        O      0.793716666667     0.050850000000     0.334733333333     2.35       
O        O      0.678466666667     0.055100000000     0.540533333333     2.35       
O        O      0.723016666667     0.001550000000     0.846633333333     2.35       
O        O      0.735600000000     0.246150000000     0.910366666667     2.35       
O        O      0.674866666667     0.232250000000     0.798566666667     2.35       
O        O      0.783450000000     0.014625000000     0.958733333333     2.35       
O        O      0.775866666667     0.165600000000     0.710233333333     2.35       
O        O      0.694616666667     0.011400000000     0.977200000000     2.35       
O        O      0.761600000000     0.190125000000     0.975900000000     2.35       
O        O      0.680833333333     0.081825000000     0.713066666667     2.35       
O        O      0.763850000000     0.239225000000     0.779500000000     2.35       
O        O      0.693966666667     0.058175000000     0.780833333333     2.35       
O        O      0.752666666667     0.082150000000     0.738600000000     2.35       
O        O      0.704300000000     0.164075000000     0.686200000000     2.35       
O        O      0.808666666667     0.227300000000     0.687333333333     2.35       
O        O      0.818283333333     0.019850000000     0.735366666667     2.35       
O        O      0.761383333333     0.048025000000     0.861633333333     2.35       
O        O      0.829800000000     0.196975000000     0.755166666667     2.35       
O        O      0.680150000000     0.127925000000     0.751400000000     2.35       
O        O      0.777383333333     0.119575000000     0.671733333333     2.35       
O        O      0.793716666667     0.050850000000     0.668066666667     2.35       
O        O      0.678466666667     0.055100000000     0.873866666667     2.35       
O        O      0.723016666667     0.251550000000     0.179966666667     2.35       
O        O      0.735600000000     0.496150000000     0.243700000000     2.35       
O        O      0.674866666667     0.482250000000     0.131900000000     2.35       
O        O      0.783450000000     0.264625000000     0.292066666667     2.35       
O        O      0.775866666667     0.415600000000     0.043566666667     2.35       
O        O      0.694616666667     0.261400000000     0.310533333333     2.35       
O        O      0.761600000000     0.440125000000     0.309233333333     2.35       
O        O      0.680833333333     0.331825000000     0.046400000000     2.35       
O        O      0.763850000000     0.489225000000     0.112833333333     2.35       
O        O      0.693966666667     0.308175000000     0.114166666667     2.35       
O        O      0.752666666667     0.332150000000     0.071933333333     2.35       
O        O      0.704300000000     0.414075000000     0.019533333333     2.35       
O        O      0.808666666667     0.477300000000     0.020666666667     2.35       
O        O      0.818283333333     0.269850000000     0.068700000000     2.35       
O        O      0.761383333333     0.298025000000     0.194966666667     2.35       
O        O      0.829800000000     0.446975000000     0.088500000000     2.35       
O        O      0.680150000000     0.377925000000     0.084733333333     2.35       
O        O      0.777383333333     0.369575000000     0.005066666667     2.35       
O        O      0.793716666667     0.300850000000     0.001400000000     2.35       
O        O      0.678466666667     0.305100000000     0.207200000000     2.35       
O        O      0.723016666667     0.251550000000     0.513300000000     2.35       
O        O      0.735600000000     0.496150000000     0.577033333333     2.35       
O        O      0.674866666667     0.482250000000     0.465233333333     2.35       
O        O      0.783450000000     0.264625000000     0.625400000000     2.35       
O        O      0.775866666667     0.415600000000     0.376900000000     2.35       
O        O      0.694616666667     0.261400000000     0.643866666667     2.35       
O        O      0.761600000000     0.440125000000     0.642566666667     2.35       
O        O      0.680833333333     0.331825000000     0.379733333333     2.35       
O        O      0.763850000000     0.489225000000     0.446166666667     2.35       
O        O      0.693966666667     0.308175000000     0.447500000000     2.35       
O        O      0.752666666667     0.332150000000     0.405266666667     2.35       
O        O      0.704300000000     0.414075000000     0.352866666667     2.35       
O        O      0.808666666667     0.477300000000     0.354000000000     2.35       
O        O      0.818283333333     0.269850000000     0.402033333333     2.35       
O        O      0.761383333333     0.298025000000     0.528300000000     2.35       
O        O      0.829800000000     0.446975000000     0.421833333333     2.35       
O        O      0.680150000000     0.377925000000     0.418066666667     2.35       
O        O      0.777383333333     0.369575000000     0.338400000000     2.35       
O        O      0.793716666667     0.300850000000     0.334733333333     2.35       
O        O      0.678466666667     0.305100000000     0.540533333333     2.35       
O        O      0.723016666667     0.251550000000     0.846633333333     2.35       
O        O      0.735600000000     0.496150000000     0.910366666667     2.35       
O        O      0.674866666667     0.482250000000     0.798566666667     2.35       
O        O      0.783450000000     0.264625000000     0.958733333333     2.35       
O        O      0.775866666667     0.415600000000     0.710233333333     2.35       
O        O      0.694616666667     0.261400000000     0.977200000000     2.35       
O        O      0.761600000000     0.440125000000     0.975900000000     2.35       
O        O      0.680833333333     0.331825000000     0.713066666667     2.35       
O        O      0.763850000000     0.489225000000     0.779500000000     2.35       
O        O      0.693966666667     0.308175000000     0.780833333333     2.35       
O        O      0.752666666667     0.332150000000     0.738600000000     2.35       
O        O      0.704300000000     0.414075000000     0.686200000000     2.35       
O        O      0.808666666667     0.477300000000     0.687333333333     2.35       
O        O      0.818283333333     0.269850000000     0.735366666667     2.35       
O        O      0.761383333333     0.298025000000     0.861633333333     2.35       
O        O      0.829800000000     0.446975000000     0.755166666667     2.35       
O        O      0.680150000000     0.377925000000     0.751400000000     2.35       
O        O      0.777383333333     0.369575000000     0.671733333333     2.35       
O        O      0.793716666667     0.300850000000     0.668066666667     2.35       
O        O      0.678466666667     0.305100000000     0.873866666667     2.35       
O        O      0.723016666667     0.501550000000     0.179966666667     2.35       
O        O      0.735600000000     0.746150000000     0.243700000000     2.35       
O        O      0.674866666667     0.732250000000     0.131900000000     2.35       
O        O      0.783450000000     0.514625000000     0.292066666667     2.35       
O        O      0.775866666667     0.665600000000     0.043566666667     2.35       
O        O      0.694616666667     0.511400000000     0.310533333333     2.35       
O        O      0.761600000000     0.690125000000     0.309233333333     2.35       
O        O      0.680833333333     0.581825000000     0.046400000000     2.35       
O        O      0.763850000000     0.739225000000     0.112833333333     2.35       
O        O      0.693966666667     0.558175000000     0.114166666667     2.35       
O        O      0.752666666667     0.582150000000     0.071933333333     2.35       
O        O      0.704300000000     0.664075000000     0.019533333333     2.35       
O        O      0.808666666667     0.727300000000     0.020666666667     2.35       
O        O      0.818283333333     0.519850000000     0.068700000000     2.35       
O        O      0.761383333333     0.548025000000     0.194966666667     2.35       
O        O      0.829800000000     0.696975000000     0.088500000000     2.35       
O        O      0.680150000000     0.627925000000     0.084733333333     2.35       
O        O      0.777383333333     0.619575000000     0.005066666667     2.35       
O        O      0.793716666667     0.550850000000     0.001400000000     2.35       
O        O      0.678466666667     0.555100000000     0.207200000000     2.35       
O        O      0.723016666667     0.501550000000     0.513300000000     2.35       
O        O      0.735600000000     0.746150000000     0.577033333333     2.35       
O        O      0.674866666667     0.732250000000     0.465233333333     2.35       
O        O      0.783450000000     0.514625000000     0.625400000000     2.35       
O        O      0.775866666667     0.665600000000     0.376900000000     2.35       
O        O      0.694616666667     0.511400000000     0.643866666667     2.35       
O        O      0.761600000000     0.690125000000     0.642566666667     2.35       
O        O      0.680833333333     0.581825000000     0.379733333333     2.35       
O        O      0.763850000000     0.739225000000     0.446166666667     2.35       
O        O      0.693966666667     0.558175000000     0.447500000000     2.35       
O        O      0.752666666667     0.582150000000     0.405266666667     2.35       
O        O      0.704300000000     0.664075000000     0.352866666667     2.35       
O        O      0.808666666667     0.727300000000     0.354000000000     2.35       
O        O      0.818283333333     0.519850000000     0.402033333333     2.35       
O        O      0.761383333333     0.548025000000     0.528300000000     2.35       
O        O      0.829800000000     0.696975000000     0.421833333333     2.35       
O        O      0.680150000000     0.627925000000     0.418066666667     2.35       
O        O      0.777383333333     0.619575000000     0.338400000000     2.35       
O        O      0.793716666667     0.550850000000     0.334733333333     2.35       
O        O      0.678466666667     0.555100000000     0.540533333333     2.35       
O        O      0.723016666667     0.501550000000     0.846633333333     2.35       
O        O      0.735600000000     0.746150000000     0.910366666667     2.35       
O        O      0.674866666667     0.732250000000     0.798566666667     2.35       
O        O      0.783450000000     0.514625000000     0.958733333333     2.35       
O        O      0.775866666667     0.665600000000     0.710233333333     2.35       
O        O      0.694616666667     0.511400000000     0.977200000000     2.35       
O        O      0.761600000000     0.690125000000     0.975900000000     2.35       
O        O      0.680833333333     0.581825000000     0.713066666667     2.35       
O        O      0.763850000000     0.739225000000     0.779500000000     2.35       
O        O      0.693966666667     0.558175000000     0.780833333333     2.35       
O        O      0.752666666667     0.582150000000     0.738600000000     2.35       
O        O      0.704300000000     0.664075000000     0.686200000000     2.35       
O        O      0.808666666667     0.727300000000     0.687333333333     2.35       
O        O      0.818283333333     0.519850000000     0.735366666667     2.35       
O        O      0.761383333333     0.548025000000     0.861633333333     2.35       
O        O      0.829800000000     0.696975000000     0.755166666667     2.35       
O        O      0.680150000000     0.627925000000     0.751400000000     2.35       
O        O      0.777383333333     0.619575000000     0.671733333333     2.35       
O        O      0.793716666667     0.550850000000     0.668066666667     2.35       
O        O      0.678466666667     0.555100000000     0.873866666667     2.35       
O        O      0.723016666667     0.751550000000     0.179966666667     2.35       
O        O      0.735600000000     0.996150000000     0.243700000000     2.35       
O        O      0.674866666667     0.982250000000     0.131900000000     2.35       
O        O      0.783450000000     0.764625000000     0.292066666667     2.35       
O        O      0.775866666667     0.915600000000     0.043566666667     2.35       
O        O      0.694616666667     0.761400000000     0.310533333333     2.35       
O        O      0.761600000000     0.940125000000     0.309233333333     2.35       
O        O      0.680833333333     0.831825000000     0.046400000000     2.35       
O        O      0.763850000000     0.989225000000     0.112833333333     2.35       
O        O      0.693966666667     0.808175000000     0.114166666667     2.35       
O        O      0.752666666667     0.832150000000     0.071933333333     2.35       
O        O      0.704300000000     0.914075000000     0.019533333333     2.35       
O        O      0.808666666667     0.977300000000     0.020666666667     2.35       
O        O      0.818283333333     0.769850000000     0.068700000000     2.35       
O        O      0.761383333333     0.798025000000     0.194966666667     2.35       
O        O      0.829800000000     0.946975000000     0.088500000000     2.35       
O        O      0.680150000000     0.877925000000     0.084733333333     2.35       
O        O      0.777383333333     0.869575000000     0.005066666667     2.35       
O        O      0.793716666667     0.800850000000     0.001400000000     2.35       
O        O      0.678466666667     0.805100000000     0.207200000000     2.35       
O        O      0.723016666667     0.751550000000     0.513300000000     2.35       
O        O      0.735600000000     0.996150000000     0.577033333333     2.35       
O        O      0.674866666667     0.982250000000     0.465233333333     2.35       
O        O      0.783450000000     0.764625000000     0.625400000000     2.35       
O        O      0.775866666667     0.915600000000     0.376900000000     2.35       
O        O      0.694616666667     0.761400000000     0.643866666667     2.35       
O        O      0.761600000000     0.940125000000     0.642566666667     2.35       
O        O      0.680833333333     0.831825000000     0.379733333333     2.35       
O        O      0.763850000000     0.989225000000     0.446166666667     2.35       
O        O      0.693966666667     0.808175000000     0.447500000000     2.35       
O        O      0.752666666667     0.832150000000     0.405266666667     2.35       
O        O      0.704300000000     0.914075000000     0.352866666667     2.35       
O        O      0.808666666667     0.977300000000     0.354000000000     2.35       
O        O      0.818283333333     0.769850000000     0.402033333333     2.35       
O        O      0.761383333333     0.798025000000     0.528300000000     2.35       
O        O      0.829800000000     0.946975000000     0.421833333333     2.35       
O        O      0.680150000000     0.877925000000     0.418066666667     2.35       
O        O      0.777383333333     0.869575000000     0.338400000000     2.35       
O        O      0.793716666667     0.800850000000     0.334733333333     2.35       
O        O      0.678466666667     0.805100000000     0.540533333333     2.35       
O        O      0.723016666667     0.751550000000     0.846633333333     2.35       
O        O      0.735600000000     0.996150000000     0.910366666667     2.35       
O        O      0.674866666667     0.982250000000     0.798566666667     2.35       
O        O      0.783450000000     0.764625000000     0.958733333333     2.35       
O        O      0.775866666667     0.915600000000     0.710233333333     2.35       
O        O      0.694616666667     0.761400000000     0.977200000000     2.35       
O        O      0.761600000000     0.940125000000     0.975900000000     2.35       
O        O      0.680833333333     0.831825000000     0.713066666667     2.35       
O        O      0.763850000000     0.989225000000     0.779500000000     2.35       
O        O      0.693966666667     0.808175000000     0.780833333333     2.35       
O        O      0.752666666667     0.832150000000     0.738600000000     2.35       
O        O      0.704300000000     0.914075000000     0.686200000000     2.35       
O        O      0.808666666667     0.977300000000     0.687333333333     2.35       
O        O      0.818283333333     0.769850000000     0.735366666667     2.35       
O        O      0.761383333333     0.798025000000     0.861633333333     2.35       
O        O      0.829800000000     0.946975000000     0.755166666667     2.35       
O        O      0.680150000000     0.877925000000     0.751400000000     2.35       
O        O      0.777383333333     0.869575000000     0.671733333333     2.35       
O        O      0.793716666667     0.800850000000     0.668066666667     2.35       
O        O      0.678466666667     0.805100000000     0.873866666667     2.35       
O        O      0.889683333333     0.001550000000     0.179966666667     2.35       
O        O      0.902266666667     0.246150000000     0.243700000000     2.35       
O        O      0.841533333333     0.232250000000     0.131900000000     2.35       
O        O      0.950116666667     0.014625000000     0.292066666667     2.35       
O        O      0.942533333333     0.165600000000     0.043566666667     2.35       
O        O      0.861283333333     0.011400000000     0.310533333333     2.35       
O        O      0.928266666667     0.190125000000     0.309233333333     2.35       
O        O      0.847500000000     0.081825000000     0.046400000000     2.35       
O        O      0.930516666667     0.239225000000     0.112833333333     2.35       
O        O      0.860633333333     0.058175000000     0.114166666667     2.35       
O        O      0.919333333333     0.082150000000     0.071933333333     2.35       
O        O      0.870966666667     0.164075000000     0.019533333333     2.35       
O        O      0.975333333333     0.227300000000     0.020666666667     2.35       
O        O      0.984950000000     0.019850000000     0.068700000000     2.35       
O        O      0.928050000000     0.048025000000     0.194966666667     2.35       
O        O      0.996466666667     0.196975000000     0.088500000000     2.35       
O        O      0.846816666667     0.127925000000     0.084733333333     2.35       
O        O      0.944050000000     0.119575000000     0.005066666667     2.35       
O        O      0.960383333333     0.050850000000     0.001400000000     2.35       
O        O      0.845133333333     0.055100000000     0.207200000000     2.35       
O        O      0.889683333333     0.001550000000     0.513300000000     2.35       
O        O      0.902266666667     0.246150000000     0.577033333333     2.35       
O        O      0.841533333333     0.232250000000     0.465233333333     2.35       
O        O      0.950116666667     0.014625000000     0.625400000000     2.35       
O        O      0.942533333333     0.165600000000     0.376900000000     2.35       
O        O      0.861283333333     0.011400000000     0.643866666667     2.35       
O        O      0.928266666667     0.190125000000     0.642566666667     2.35       
O        O      0.847500000000     0.081825000000     0.379733333333     2.35       
O        O      0.930516666667     0.239225000000     0.446166666667     2.35       
O        O      0.860633333333     0.058175000000     0.447500000000     2.35       
O        O      0.919333333333     0.082150000000     0.405266666667     2.35       
O        O      0.870966666667     0.164075000000     0.352866666667     2.35       
O        O      0.975333333333     0.227300000000     0.354000000000     2.35       
O        O      0.984950000000     0.019850000000     0.402033333333     2.35       
O        O      0.928050000000     0.048025000000     0.528300000000     2.35       
O        O      0.996466666667     0.196975000000     0.421833333333     2.35       
O        O      0.846816666667     0.127925000000     0.418066666667     2.35       
O        O      0.944050000000     0.119575000000     0.338400000000     2.35       
O        O      0.960383333333     0.050850000000     0.334733333333     2.35       
O        O      0.845133333333     0.055100000000     0.540533333333     2.35       
O        O      0.889683333333     0.001550000000     0.846633333333     2.35       
O        O      0.902266666667     0.246150000000     0.910366666667     2.35       
O        O      0.841533333333     0.232250000000     0.798566666667     2.35       
O        O      0.950116666667     0.014625000000     0.958733333333     2.35       
O        O      0.942533333333     0.165600000000     0.710233333333     2.35       
O        O      0.861283333333     0.011400000000     0.977200000000     2.35       
O        O      0.928266666667     0.190125000000     0.975900000000     2.35       
O        O      0.847500000000     0.081825000000     0.713066666667     2.35       
O        O      0.930516666667     0.239225000000     0.779500000000     2.35       
O        O      0.860633333333     0.058175000000     0.780833333333     2.35       
O        O      0.919333333333     0.082150000000     0.738600000000     2.35       
O        O      0.870966666667     0.164075000000     0.686200000000     2.35       
O        O      0.975333333333     0.227300000000     0.687333333333     2.35       
O        O      0.984950000000     0.019850000000     0.735366666667     2.35       
O        O      0.928050000000     0.048025000000     0.861633333333     2.35       
O        O      0.996466666667     0.196975000000     0.755166666667     2.35       
O        O      0.846816666667     0.127925000000     0.751400000000     2.35       
O        O      0.944050000000     0.119575000000     0.671733333333     2.35       
O        O      0.960383333333     0.050850000000     0.668066666667     2.35       
O        O      0.845133333333     0.055100000000     0.873866666667     2.35       
O        O      0.889683333333     0.251550000000     0.179966666667     2.35       
O        O      0.902266666667     0.496150000000     0.243700000000     2.35       
O        O      0.841533333333     0.482250000000     0.131900000000     2.35       
O        O      0.950116666667     0.264625000000     0.292066666667     2.35       
O        O      0.942533333333     0.415600000000     0.043566666667     2.35       
O        O      0.861283333333     0.261400000000     0.310533333333     2.35       
O        O      0.928266666667     0.440125000000     0.309233333333     2.35       
O        O      0.847500000000     0.331825000000     0.046400000000     2.35       
O        O      0.930516666667     0.489225000000     0.112833333333     2.35       
O        O      0.860633333333     0.308175000000     0.114166666667     2.35       
O        O      0.919333333333     0.332150000000     0.071933333333     2.35       
O        O      0.870966666667     0.414075000000     0.019533333333     2.35       
O        O      0.975333333333     0.477300000000     0.020666666667     2.35       
O        O      0.984950000000     0.269850000000     0.068700000000     2.35       
O        O      0.928050000000     0.298025000000     0.194966666667     2.35       
O        O      0.996466666667     0.446975000000     0.088500000000     2.35       
O        O      0.846816666667     0.377925000000     0.084733333333     2.35       
O        O      0.944050000000     0.369575000000     0.005066666667     2.35       
O        O      0.960383333333     0.300850000000     0.001400000000     2.35       
O        O      0.845133333333     0.305100000000     0.207200000000     2.35       
O        O      0.889683333333     0.251550000000     0.513300000000     2.35       
O        O      0.902266666667     0.496150000000     0.577033333333     2.35       
O        O      0.841533333333     0.482250000000     0.465233333333     2.35       
O        O      0.950116666667     0.264625000000     0.625400000000     2.35       
O        O      0.942533333333     0.415600000000     0.376900000000     2.35       
O        O      0.861283333333     0.261400000000     0.643866666667     2.35       
O        O      0.928266666667     0.440125000000     0.642566666667     2.35       
O        O      0.847500000000     0.331825000000     0.379733333333     2.35       
O        O      0.930516666667     0.489225000000     0.446166666667     2.35       
O        O      0.860633333333     0.308175000000     0.447500000000     2.35       
O        O      0.919333333333     0.332150000000     0.405266666667     2.35       
O        O      0.870966666667     0.414075000000     0.352866666667     2.35       
O        O      0.975333333333     0.477300000000     0.354000000000     2.35       
O        O      0.984950000000     0.269850000000     0.402033333333     2.35       
O        O      0.928050000000     0.298025000000     0.528300000000     2.35       
O        O      0.996466666667     0.446975000000     0.421833333333     2.35       
O        O      0.846816666667     0.377925000000     0.418066666667     2.35       
O        O      0.944050000000     0.369575000000     0.338400000000     2.35       
O        O      0.960383333333     0.300850000000     0.334733333333     2.35       
O        O      0.845133333333     0.305100000000     0.540533333333     2.35       
O        O      0.889683333333     0.251550000000     0.846633333333     2.35       
O        O      0.902266666667     0.496150000000     0.910366666667     2.35       
O        O      0.841533333333     0.482250000000     0.798566666667     2.35       
O        O      0.950116666667     0.264625000000     0.958733333333     2.35       
O        O      0.942533333333     0.415600000000     0.710233333333     2.35       
O        O      0.861283333333     0.261400000000     0.977200000000     2.35       
O        O      0.928266666667     0.440125000000     0.975900000000     2.35       
O        O      0.847500000000     0.331825000000     0.713066666667     2.35       
O        O      0.930516666667     0.489225000000     0.779500000000     2.35       
O        O      0.860633333333     0.308175000000     0.780833333333     2.35       
O        O      0.919333333333     0.332150000000     0.738600000000     2.35       
O        O      0.870966666667     0.414075000000     0.686200000000     2.35       
O        O      0.975333333333     0.477300000000     0.687333333333     2.35       
O        O      0.984950000000     0.269850000000     0.735366666667     2.35       
O        O      0.928050000000     0.298025000000     0.861633333333     2.35       
O        O      0.996466666667     0.446975000000     0.755166666667     2.35       
O        O      0.846816666667     0.377925000000     0.751400000000     2.35       
O        O      0.944050000000     0.369575000000     0.671733333333     2.35       
O        O      0.960383333333     0.300850000000     0.668066666667     2.35       
O        O      0.845133333333     0.305100000000     0.873866666667     2.35       
O        O      0.889683333333     0.501550000000     0.179966666667     2.35       
O        O      0.902266666667     0.746150000000     0.243700000000     2.35       
O        O      0.841533333333     0.732250000000     0.131900000000     2.35       
O        O      0.950116666667     0.514625000000     0.292066666667     2.35       
O        O      0.942533333333     0.665600000000     0.043566666667     2.35       
O        O      0.861283333333     0.511400000000     0.310533333333     2.35       
O        O      0.928266666667     0.690125000000     0.309233333333     2.35       
O        O      0.847500000000     0.581825000000     0.046400000000     2.35       
O        O      0.930516666667     0.739225000000     0.112833333333     2.35       
O        O      0.860633333333     0.558175000000     0.114166666667     2.35       
O        O      0.919333333333     0.582150000000     0.071933333333     2.35       
O        O      0.870966666667     0.664075000000     0.019533333333     2.35       
O        O      0.975333333333     0.727300000000     0.020666666667     2.35       
O        O      0.984950000000     0.519850000000     0.068700000000     2.35       
O        O      0.928050000000     0.548025000000     0.194966666667     2.35       
O        O      0.996466666667     0.696975000000     0.088500000000     2.35       
O        O      0.846816666667     0.627925000000     0.084733333333     2.35       
O        O      0.944050000000     0.619575000000     0.005066666667     2.35       
O        O      0.960383333333     0.550850000000     0.001400000000     2.35       
O        O      0.845133333333     0.555100000000     0.207200000000     2.35       
O        O      0.889683333333     0.501550000000     0.513300000000     2.35       
O        O      0.902266666667     0.746150000000     0.577033333333     2.35       
O        O      0.841533333333     0.732250000000     0.465233333333     2.35       
O        O      0.950116666667     0.514625000000     0.625400000000     2.35       
O        O      0.942533333333     0.665600000000     0.376900000000     2.35       
O        O      0.861283333333     0.511400000000     0.643866666667     2.35       
O        O      0.928266666667     0.690125000000     0.642566666667     2.35       
O        O      0.847500000000     0.581825000000     0.379733333333     2.35       
O        O      0.930516666667     0.739225000000     0.446166666667     2.35       
O        O      0.860633333333     0.558175000000     0.447500000000     2.35       
O        O      0.919333333333     0.582150000000     0.405266666667     2.35       
O        O      0.870966666667     0.664075000000     0.352866666667     2.35       
O        O      0.975333333333     0.727300000000     0.354000000000     2.35       
O        O      0.984950000000     0.519850000000     0.402033333333     2.35       
O        O      0.928050000000     0.548025000000     0.528300000000     2.35       
O        O      0.996466666667     0.696975000000     0.421833333333     2.35       
O        O      0.846816666667     0.627925000000     0.418066666667     2.35       
O        O      0.944050000000     0.619575000000     0.338400000000     2.35       
O        O      0.960383333333     0.550850000000     0.334733333333     2.35       
O        O      0.845133333333     0.555100000000     0.540533333333     2.35       
O        O      0.889683333333     0.501550000000     0.846633333333     2.35       
O        O      0.902266666667     0.746150000000     0.910366666667     2.35       
O        O      0.841533333333     0.732250000000     0.798566666667     2.35       
O        O      0.950116666667     0.514625000000     0.958733333333     2.35       
O        O      0.942533333333     0.665600000000     0.710233333333     2.35       
O        O      0.861283333333     0.511400000000     0.977200000000     2.35       
O        O      0.928266666667     0.690125000000     0.975900000000     2.35       
O        O      0.847500000000     0.581825000000     0.713066666667     2.35       
O        O      0.930516666667     0.739225000000     0.779500000000     2.35       
O        O      0.860633333333     0.558175000000     0.780833333333     2.35       
O        O      0.919333333333     0.582150000000     0.738600000000     2.35       
O        O      0.870966666667     0.664075000000     0.686200000000     2.35       
O        O      0.975333333333     0.727300000000     0.687333333333     2.35       
O        O      0.984950000000     0.519850000000     0.735366666667     2.35       
O        O      0.928050000000     0.548025000000     0.861633333333     2.35       
O        O      0.996466666667     0.696975000000     0.755166666667     2.35       
O        O      0.846816666667     0.627925000000     0.751400000000     2.35       
O        O      0.944050000000     0.619575000000     0.671733333333     2.35       
O        O      0.960383333333     0.550850000000     0.668066666667     2.35       
O        O      0.845133333333     0.555100000000     0.873866666667     2.35       
O        O      0.889683333333     0.751550000000     0.179966666667     2.35       
O        O      0.902266666667     0.996150000000     0.243700000000     2.35       
O        O      0.841533333333     0.982250000000     0.131900000000     2.35       
O        O      0.950116666667     0.764625000000     0.292066666667     2.35       
O        O      0.942533333333     0.915600000000     0.043566666667     2.35       
O        O      0.861283333333     0.761400000000     0.310533333333     2.35       
O        O      0.928266666667     0.940125000000     0.309233333333     2.35       
O        O      0.847500000000     0.831825000000     0.046400000000     2.35       
O        O      0.930516666667     0.989225000000     0.112833333333     2.35       
O        O      0.860633333333     0.808175000000     0.114166666667     2.35       
O        O      0.919333333333     0.832150000000     0.071933333333     2.35       
O        O      0.870966666667     0.914075000000     0.019533333333     2.35       
O        O      0.975333333333     0.977300000000     0.020666666667     2.35       
O        O      0.984950000000     0.769850000000     0.068700000000     2.35       
O        O      0.928050000000     0.798025000000     0.194966666667     2.35       
O        O      0.996466666667     0.946975000000     0.088500000000     2.35       
O        O      0.846816666667     0.877925000000     0.084733333333     2.35       
O        O      0.944050000000     0.869575000000     0.005066666667     2.35       
O        O      0.960383333333     0.800850000000     0.001400000000     2.35       
O        O      0.845133333333     0.805100000000     0.207200000000     2.35       
O        O      0.889683333333     0.751550000000     0.513300000000     2.35       
O        O      0.902266666667     0.996150000000     0.577033333333     2.35       
O        O      0.841533333333     0.982250000000     0.465233333333     2.35       
O        O      0.950116666667     0.764625000000     0.625400000000     2.35       
O        O      0.942533333333     0.915600000000     0.376900000000     2.35       
O        O      0.861283333333     0.761400000000     0.643866666667     2.35       
O        O      0.928266666667     0.940125000000     0.642566666667     2.35       
O        O      0.847500000000     0.831825000000     0.379733333333     2.35       
O        O      0.930516666667     0.989225000000     0.446166666667     2.35       
O        O      0.860633333333     0.808175000000     0.447500000000     2.35       
O        O      0.919333333333     0.832150000000     0.405266666667     2.35       
O        O      0.870966666667     0.914075000000     0.352866666667     2.35       
O        O      0.975333333333     0.977300000000     0.354000000000     2.35       
O        O      0.984950000000     0.769850000000     0.402033333333     2.35       
O        O      0.928050000000     0.798025000000     0.528300000000     2.35       
O        O      0.996466666667     0.946975000000     0.421833333333     2.35       
O        O      0.846816666667     0.877925000000     0.418066666667     2.35       
O        O      0.944050000000     0.869575000000     0.338400000000     2.35       
O        O      0.960383333333     0.800850000000     0.334733333333     2.35       
O        O      0.845133333333     0.805100000000     0.540533333333     2.35       
O        O      0.889683333333     0.751550000000     0.846633333333     2.35       
O        O      0.902266666667     0.996150000000     0.910366666667     2.35       
O        O      0.841533333333     0.982250000000     0.798566666667     2.35       
O        O      0.950116666667     0.764625000000     0.958733333333     2.35       
O        O      0.942533333333     0.915600000000     0.710233333333     2.35       
O        O      0.861283333333     0.761400000000     0.977200000000     2.35       
O        O      0.928266666667     0.940125000000     0.975900000000     2.35       
O        O      0.847500000000     0.831825000000     0.713066666667     2.35       
O        O      0.930516666667     0.989225000000     0.779500000000     2.35       
O        O      0.860633333333     0.808175000000     0.780833333333     2.35       
O        O      0.919333333333     0.832150000000     0.738600000000     2.35       
O        O      0.870966666667     0.914075000000     0.686200000000     2.35       
O        O      0.975333333333     0.977300000000     0.687333333333     2.35       
O        O      0.984950000000     0.769850000000     0.735366666667     2.35       
O        O      0.928050000000     0.798025000000     0.861633333333     2.35       
O        O      0.996466666667     0.946975000000     0.755166666667     2.35       
O        O      0.846816666667     0.877925000000     0.751400000000     2.35       
O        O      0.944050000000     0.869575000000     0.671733333333     2.35       
O        O      0.960383333333     0.800850000000     0.668066666667     2.35       
O        O      0.845133333333     0.805100000000     0.873866666667     2.35       
Al       Al     0.160350000000     0.177550000000     0.051360000000     2.35       
Al       Al     0.047466666667     0.008225000000     0.134073333333     2.35       
Al       Al     0.130450000000     0.069425000000     0.040066666667     2.35       
Al       Al     0.076966666667     0.239600000000     0.289216666667     2.35       
Al       Al     0.160350000000     0.177550000000     0.384693333333     2.35       
Al       Al     0.047466666667     0.008225000000     0.467406666667     2.35       
Al       Al     0.130450000000     0.069425000000     0.373400000000     2.35       
Al       Al     0.076966666667     0.239600000000     0.622550000000     2.35       
Al       Al     0.160350000000     0.177550000000     0.718026666667     2.35       
Al       Al     0.047466666667     0.008225000000     0.800740000000     2.35       
Al       Al     0.130450000000     0.069425000000     0.706733333333     2.35       
Al       Al     0.076966666667     0.239600000000     0.955883333333     2.35       
Al       Al     0.160350000000     0.427550000000     0.051360000000     2.35       
Al       Al     0.047466666667     0.258225000000     0.134073333333     2.35       
Al       Al     0.130450000000     0.319425000000     0.040066666667     2.35       
Al       Al     0.076966666667     0.489600000000     0.289216666667     2.35       
Al       Al     0.160350000000     0.427550000000     0.384693333333     2.35       
Al       Al     0.047466666667     0.258225000000     0.467406666667     2.35       
Al       Al     0.130450000000     0.319425000000     0.373400000000     2.35       
Al       Al     0.076966666667     0.489600000000     0.622550000000     2.35       
Al       Al     0.160350000000     0.427550000000     0.718026666667     2.35       
Al       Al     0.047466666667     0.258225000000     0.800740000000     2.35       
Al       Al     0.130450000000     0.319425000000     0.706733333333     2.35       
Al       Al     0.076966666667     0.489600000000     0.955883333333     2.35       
Al       Al     0.160350000000     0.677550000000     0.051360000000     2.35       
Al       Al     0.047466666667     0.508225000000     0.134073333333     2.35       
Al       Al     0.130450000000     0.569425000000     0.040066666667     2.35       
Al       Al     0.076966666667     0.739600000000     0.289216666667     2.35       
Al       Al     0.160350000000     0.677550000000     0.384693333333     2.35       
Al       Al     0.047466666667     0.508225000000     0.467406666667     2.35       
Al       Al     0.130450000000     0.569425000000     0.373400000000     2.35       
Al       Al     0.076966666667     0.739600000000     0.622550000000     2.35       
Al       Al     0.160350000000     0.677550000000     0.718026666667     2.35       
Al       Al     0.047466666667     0.508225000000     0.800740000000     2.35       
Al       Al     0.130450000000     0.569425000000     0.706733333333     2.35       
Al       Al     0.076966666667     0.739600000000     0.955883333333     2.35       
Al       Al     0.160350000000     0.927550000000     0.051360000000     2.35       
Al       Al     0.047466666667     0.758225000000     0.134073333333     2.35       
Al       Al     0.130450000000     0.819425000000     0.040066666667     2.35       
Al       Al     0.076966666667     0.989600000000     0.289216666667     2.35       
Al       Al     0.160350000000     0.927550000000     0.384693333333     2.35       
Al       Al     0.047466666667     0.758225000000     0.467406666667     2.35       
Al       Al     0.130450000000     0.819425000000     0.373400000000     2.35       
Al       Al     0.076966666667     0.989600000000     0.622550000000     2.35       
Al       Al     0.160350000000     0.927550000000     0.718026666667     2.35       
Al       Al     0.047466666667     0.758225000000     0.800740000000     2.35       
Al       Al     0.130450000000     0.819425000000     0.706733333333     2.35       
Al       Al     0.076966666667     0.989600000000     0.955883333333     2.35       
Al       Al     0.327016666667     0.177550000000     0.051360000000     2.35       
Al       Al     0.214133333333     0.008225000000     0.134073333333     2.35       
Al       Al     0.297116666667     0.069425000000     0.040066666667     2.35       
Al       Al     0.243633333333     0.239600000000     0.289216666667     2.35       
Al       Al     0.327016666667     0.177550000000     0.384693333333     2.35       
Al       Al     0.214133333333     0.008225000000     0.467406666667     2.35       
Al       Al     0.297116666667     0.069425000000     0.373400000000     2.35       
Al       Al     0.243633333333     0.239600000000     0.622550000000     2.35       
Al       Al     0.327016666667     0.177550000000     0.718026666667     2.35       
Al       Al     0.214133333333     0.008225000000     0.800740000000     2.35       
Al       Al     0.297116666667     0.069425000000     0.706733333333     2.35       
Al       Al     0.243633333333     0.239600000000     0.955883333333     2.35       
Al       Al     0.327016666667     0.427550000000     0.051360000000     2.35       
Al       Al     0.214133333333     0.258225000000     0.134073333333     2.35       
Al       Al     0.297116666667     0.319425000000     0.040066666667     2.35       
Al       Al     0.243633333333     0.489600000000     0.289216666667     2.35       
Al       Al     0.327016666667     0.427550000000     0.384693333333     2.35       
Al       Al     0.214133333333     0.258225000000     0.467406666667     2.35       
Al       Al     0.297116666667     0.319425000000     0.373400000000     2.35       
Al       Al     0.243633333333     0.489600000000     0.622550000000     2.35       
Al       Al     0.327016666667     0.427550000000     0.718026666667     2.35       
Al       Al     0.214133333333     0.258225000000     0.800740000000     2.35       
Al       Al     0.297116666667     0.319425000000     0.706733333333     2.35       
Al       Al     0.243633333333     0.489600000000     0.955883333333     2.35       
Al       Al     0.327016666667     0.677550000000     0.051360000000     2.35       
Al       Al     0.214133333333     0.508225000000     0.134073333333     2.35       
Al       Al     0.297116666667     0.569425000000     0.040066666667     2.35       
Al       Al     0.243633333333     0.739600000000     0.289216666667     2.35       
Al       Al     0.327016666667     0.677550000000     0.384693333333     2.35       
Al       Al     0.214133333333     0.508225000000     0.467406666667     2.35       
Al       Al     0.297116666667     0.569425000000     0.373400000000     2.35       
Al       Al     0.243633333333     0.739600000000     0.622550000000     2.35       
Al       Al     0.327016666667     0.677550000000     0.718026666667     2.35       
Al       Al     0.214133333333     0.508225000000     0.800740000000     2.35       
Al       Al     0.297116666667     0.569425000000     0.706733333333     2.35       
Al       Al     0.243633333333     0.739600000000     0.955883333333     2.35       
Al       Al     0.327016666667     0.927550000000     0.051360000000     2.35       
Al       Al     0.214133333333     0.758225000000     0.134073333333     2.35       
Al       Al     0.297116666667     0.819425000000     0.040066666667     2.35       
Al       Al     0.243633333333     0.989600000000     0.289216666667     2.35       
Al       Al     0.327016666667     0.927550000000     0.384693333333     2.35       
Al       Al     0.214133333333     0.758225000000     0.467406666667     2.35       
Al       Al     0.297116666667     0.819425000000     0.373400000000     2.35       
Al       Al     0.243633333333     0.989600000000     0.622550000000     2.35       
Al       Al     0.327016666667     0.927550000000     0.718026666667     2.35       
Al       Al     0.214133333333     0.758225000000     0.800740000000     2.35       
Al       Al     0.297116666667     0.819425000000     0.706733333333     2.35       
Al       Al     0.243633333333     0.989600000000     0.955883333333     2.35       
Al       Al     0.493683333333     0.177550000000     0.051360000000     2.35       
Al       Al     0.380800000000     0.008225000000     0.134073333333     2.35       
Al       Al     0.463783333333     0.069425000000     0.040066666667     2.35       
Al       Al     0.410300000000     0.239600000000     0.289216666667     2.35       
Al       Al     0.493683333333     0.177550000000     0.384693333333     2.35       
Al       Al     0.380800000000     0.008225000000     0.467406666667     2.35       
Al       Al     0.463783333333     0.069425000000     0.373400000000     2.35       
Al       Al     0.410300000000     0.239600000000     0.622550000000     2.35       
Al       Al     0.493683333333     0.177550000000     0.718026666667     2.35       
Al       Al     0.380800000000     0.008225000000     0.800740000000     2.35       
Al       Al     0.463783333333     0.069425000000     0.706733333333     2.35       
Al       Al     0.410300000000     0.239600000000     0.955883333333     2.35       
Al       Al     0.493683333333     0.427550000000     0.051360000000     2.35       
Al       Al     0.380800000000     0.258225000000     0.134073333333     2.35       
Al       Al     0.463783333333     0.319425000000     0.040066666667     2.35       
Al       Al     0.410300000000     0.489600000000     0.289216666667     2.35       
Al       Al     0.493683333333     0.427550000000     0.384693333333     2.35       
Al       Al     0.380800000000     0.258225000000     0.467406666667     2.35       
Al       Al     0.463783333333     0.319425000000     0.373400000000     2.35       
Al       Al     0.410300000000     0.489600000000     0.622550000000     2.35       
Al       Al     0.493683333333     0.427550000000     0.718026666667     2.35       
Al       Al     0.380800000000     0.258225000000     0.800740000000     2.35       
Al       Al     0.463783333333     0.319425000000     0.706733333333     2.35       
Al       Al     0.410300000000     0.489600000000     0.955883333333     2.35       
Al       Al     0.493683333333     0.677550000000     0.051360000000     2.35       
Al       Al     0.380800000000     0.508225000000     0.134073333333     2.35       
Al       Al     0.463783333333     0.569425000000     0.040066666667     2.35       
Al       Al     0.410300000000     0.739600000000     0.289216666667     2.35       
Al       Al     0.493683333333     0.677550000000     0.384693333333     2.35       
Al       Al     0.380800000000     0.508225000000     0.467406666667     2.35       
Al       Al     0.463783333333     0.569425000000     0.373400000000     2.35       
Al       Al     0.410300000000     0.739600000000     0.622550000000     2.35       
Al       Al     0.493683333333     0.677550000000     0.718026666667     2.35       
Al       Al     0.380800000000     0.508225000000     0.800740000000     2.35       
Al       Al     0.463783333333     0.569425000000     0.706733333333     2.35       
Al       Al     0.410300000000     0.739600000000     0.955883333333     2.35       
Al       Al     0.493683333333     0.927550000000     0.051360000000     2.35       
Al       Al     0.380800000000     0.758225000000     0.134073333333     2.35       
Al       Al     0.463783333333     0.819425000000     0.040066666667     2.35       
Al       Al     0.410300000000     0.989600000000     0.289216666667     2.35       
Al       Al     0.493683333333     0.927550000000     0.384693333333     2.35       
Al       Al     0.380800000000     0.758225000000     0.467406666667     2.35       
Al       Al     0.463783333333     0.819425000000     0.373400000000     2.35       
Al       Al     0.410300000000     0.989600000000     0.622550000000     2.35       
Al       Al     0.493683333333     0.927550000000     0.718026666667     2.35       
Al       Al     0.380800000000     0.758225000000     0.800740000000     2.35       
Al       Al     0.463783333333     0.819425000000     0.706733333333     2.35       
Al       Al     0.410300000000     0.989600000000     0.955883333333     2.35       
Al       Al     0.660350000000     0.177550000000     0.051360000000     2.35       
Al       Al     0.547466666667     0.008225000000     0.134073333333     2.35       
Al       Al     0.630450000000     0.069425000000     0.040066666667     2.35       
Al       Al     0.576966666667     0.239600000000     0.289216666667     2.35       
Al       Al     0.660350000000     0.177550000000     0.384693333333     2.35       
Al       Al     0.547466666667     0.008225000000     0.467406666667     2.35       
Al       Al     0.630450000000     0.069425000000     0.373400000000     2.35       
Al       Al     0.576966666667     0.239600000000     0.622550000000     2.35       
Al       Al     0.660350000000     0.177550000000     0.718026666667     2.35       
Al       Al     0.547466666667     0.008225000000     0.800740000000     2.35       
Al       Al     0.630450000000     0.069425000000     0.706733333333     2.35       
Al       Al     0.576966666667     0.239600000000     0.955883333333     2.35       
Al       Al     0.660350000000     0.427550000000     0.051360000000     2.35       
Al       Al     0.547466666667     0.258225000000     0.134073333333     2.35       
Al       Al     0.630450000000     0.319425000000     0.040066666667     2.35       
Al       Al     0.576966666667     0.489600000000     0.289216666667     2.35       
Al       Al     0.660350000000     0.427550000000     0.384693333333     2.35       
Al       Al     0.547466666667     0.258225000000     0.467406666667     2.35       
Al       Al     0.630450000000     0.319425000000     0.373400000000     2.35       
Al       Al     0.576966666667     0.489600000000     0.622550000000     2.35       
Al       Al     0.660350000000     0.427550000000     0.718026666667     2.35       
Al       Al     0.547466666667     0.258225000000     0.800740000000     2.35       
Al       Al     0.630450000000     0.319425000000     0.706733333333     2.35       
Al       Al     0.576966666667     0.489600000000     0.955883333333     2.35       
Al       Al     0.660350000000     0.677550000000     0.051360000000     2.35       
Al       Al     0.547466666667     0.508225000000     0.134073333333     2.35       
Al       Al     0.630450000000     0.569425000000     0.040066666667     2.35       
Al       Al     0.576966666667     0.739600000000     0.289216666667     2.35       
Al       Al     0.660350000000     0.677550000000     0.384693333333     2.35       
Al       Al     0.547466666667     0.508225000000     0.467406666667     2.35       
Al       Al     0.630450000000     0.569425000000     0.373400000000     2.35       
Al       Al     0.576966666667     0.739600000000     0.622550000000     2.35       
Al       Al     0.660350000000     0.677550000000     0.718026666667     2.35       
Al       Al     0.547466666667     0.508225000000     0.800740000000     2.35       
Al       Al     0.630450000000     0.569425000000     0.706733333333     2.35       
Al       Al     0.576966666667     0.739600000000     0.955883333333     2.35       
Al       Al     0.660350000000     0.927550000000     0.051360000000     2.35       
Al       Al     0.547466666667     0.758225000000     0.134073333333     2.35       
Al       Al     0.630450000000     0.819425000000     0.040066666667     2.35       
Al       Al     0.576966666667     0.989600000000     0.289216666667     2.35       
Al       Al     0.660350000000     0.927550000000     0.384693333333     2.35       
Al       Al     0.547466666667     0.758225000000     0.467406666667     2.35       
Al       Al     0.630450000000     0.819425000000     0.373400000000     2.35       
Al       Al     0.576966666667     0.989600000000     0.622550000000     2.35       
Al       Al     0.660350000000     0.927550000000     0.718026666667     2.35       
Al       Al     0.547466666667     0.758225000000     0.800740000000     2.35       
Al       Al     0.630450000000     0.819425000000     0.706733333333     2.35       
Al       Al     0.576966666667     0.989600000000     0.955883333333     2.35       
Al       Al     0.827016666667     0.177550000000     0.051360000000     2.35       
Al       Al     0.714133333333     0.008225000000     0.134073333333     2.35       
Al       Al     0.797116666667     0.069425000000     0.040066666667     2.35       
Al       Al     0.743633333333     0.239600000000     0.289216666667     2.35       
Al       Al     0.827016666667     0.177550000000     0.384693333333     2.35       
Al       Al     0.714133333333     0.008225000000     0.467406666667     2.35       
Al       Al     0.797116666667     0.069425000000     0.373400000000     2.35       
Al       Al     0.743633333333     0.239600000000     0.622550000000     2.35       
Al       Al     0.827016666667     0.177550000000     0.718026666667     2.35       
Al       Al     0.714133333333     0.008225000000     0.800740000000     2.35       
Al       Al     0.797116666667     0.069425000000     0.706733333333     2.35       
Al       Al     0.743633333333     0.239600000000     0.955883333333     2.35       
Al       Al     0.827016666667     0.427550000000     0.051360000000     2.35       
Al       Al     0.714133333333     0.258225000000     0.134073333333     2.35       
Al       Al     0.797116666667     0.319425000000     0.040066666667     2.35       
Al       Al     0.743633333333     0.489600000000     0.289216666667     2.35       
Al       Al     0.827016666667     0.427550000000     0.384693333333     2.35       
Al       Al     0.714133333333     0.258225000000     0.467406666667     2.35       
Al       Al     0.797116666667     0.319425000000     0.373400000000     2.35       
Al       Al     0.743633333333     0.489600000000     0.622550000000     2.35       
Al       Al     0.827016666667     0.427550000000     0.718026666667     2.35       
Al       Al     0.714133333333     0.258225000000     0.800740000000     2.35       
Al       Al     0.797116666667     0.319425000000     0.706733333333     2.35       
Al       Al     0.743633333333     0.489600000000     0.955883333333     2.35       
Al       Al     0.827016666667     0.677550000000     0.051360000000     2.35       
Al       Al     0.714133333333     0.508225000000     0.134073333333     2.35       
Al       Al     0.797116666667     0.569425000000     0.040066666667     2.35       
Al       Al     0.743633333333     0.739600000000     0.289216666667     2.35       
Al       Al     0.827016666667     0.677550000000     0.384693333333     2.35       
Al       Al     0.714133333333     0.508225000000     0.467406666667     2.35       
Al       Al     0.797116666667     0.569425000000     0.373400000000     2.35       
Al       Al     0.743633333333     0.739600000000     0.622550000000     2.35       
Al       Al     0.827016666667     0.677550000000     0.718026666667     2.35       
Al       Al     0.714133333333     0.508225000000     0.800740000000     2.35       
Al       Al     0.797116666667     0.569425000000     0.706733333333     2.35       
Al       Al     0.743633333333     0.739600000000     0.955883333333     2.35       
Al       Al     0.827016666667     0.927550000000     0.051360000000     2.35       
Al       Al     0.714133333333     0.758225000000     0.134073333333     2.35       
Al       Al     0.797116666667     0.819425000000     0.040066666667     2.35       
Al       Al     0.743633333333     0.989600000000     0.289216666667     2.35       
Al       Al     0.827016666667     0.927550000000     0.384693333333     2.35       
Al       Al     0.714133333333     0.758225000000     0.467406666667     2.35       
Al       Al     0.797116666667     0.819425000000     0.373400000000     2.35       
Al       Al     0.743633333333     0.989600000000     0.622550000000     2.35       
Al       Al     0.827016666667     0.927550000000     0.718026666667     2.35       
Al       Al     0.714133333333     0.758225000000     0.800740000000     2.35       
Al       Al     0.797116666667     0.819425000000     0.706733333333     2.35       
Al       Al     0.743633333333     0.989600000000     0.955883333333     2.35       
Al       Al     0.993683333333     0.177550000000     0.051360000000     2.35       
Al       Al     0.880800000000     0.008225000000     0.134073333333     2.35       
Al       Al     0.963783333333     0.069425000000     0.040066666667     2.35       
Al       Al     0.910300000000     0.239600000000     0.289216666667     2.35       
Al       Al     0.993683333333     0.177550000000     0.384693333333     2.35       
Al       Al     0.880800000000     0.008225000000     0.467406666667     2.35       
Al       Al     0.963783333333     0.069425000000     0.373400000000     2.35       
Al       Al     0.910300000000     0.239600000000     0.622550000000     2.35       
Al       Al     0.993683333333     0.177550000000     0.718026666667     2.35       
Al       Al     0.880800000000     0.008225000000     0.800740000000     2.35       
Al       Al     0.963783333333     0.069425000000     0.706733333333     2.35       
Al       Al     0.910300000000     0.239600000000     0.955883333333     2.35       
Al       Al     0.993683333333     0.427550000000     0.051360000000     2.35       
Al       Al     0.880800000000     0.258225000000     0.134073333333     2.35       
Al       Al     0.963783333333     0.319425000000     0.040066666667     2.35       
Al       Al     0.910300000000     0.489600000000     0.289216666667     2.35       
Al       Al     0.993683333333     0.427550000000     0.384693333333     2.35       
Al       Al     0.880800000000     0.258225000000     0.467406666667     2.35       
Al       Al     0.963783333333     0.319425000000     0.373400000000     2.35       
Al       Al     0.910300000000     0.489600000000     0.622550000000     2.35       
Al       Al     0.993683333333     0.427550000000     0.718026666667     2.35       
Al       Al     0.880800000000     0.258225000000     0.800740000000     2.35       
Al       Al     0.963783333333     0.319425000000     0.706733333333     2.35       
Al       Al     0.910300000000     0.489600000000     0.955883333333     2.35       
Al       Al     0.993683333333     0.677550000000     0.051360000000     2.35       
Al       Al     0.880800000000     0.508225000000     0.134073333333     2.35       
Al       Al     0.963783333333     0.569425000000     0.040066666667     2.35       
Al       Al     0.910300000000     0.739600000000     0.289216666667     2.35       
Al       Al     0.993683333333     0.677550000000     0.384693333333     2.35       
Al       Al     0.880800000000     0.508225000000     0.467406666667     2.35       
Al       Al     0.963783333333     0.569425000000     0.373400000000     2.35       
Al       Al     0.910300000000     0.739600000000     0.622550000000     2.35       
Al       Al     0.993683333333     0.677550000000     0.718026666667     2.35       
Al       Al     0.880800000000     0.508225000000     0.800740000000     2.35       
Al       Al     0.963783333333     0.569425000000     0.706733333333     2.35       
Al       Al     0.910300000000     0.739600000000     0.955883333333     2.35       
Al       Al     0.993683333333     0.927550000000     0.051360000000     2.35       
Al       Al     0.880800000000     0.758225000000     0.134073333333     2.35       
Al       Al     0.963783333333     0.819425000000     0.040066666667     2.35       
Al       Al     0.910300000000     0.989600000000     0.289216666667     2.35       
Al       Al     0.993683333333     0.927550000000     0.384693333333     2.35       
Al       Al     0.880800000000     0.758225000000     0.467406666667     2.35       
Al       Al     0.963783333333     0.819425000000     0.373400000000     2.35       
Al       Al     0.910300000000     0.989600000000     0.622550000000     2.35       
Al       Al     0.993683333333     0.927550000000     0.718026666667     2.35       
Al       Al     0.880800000000     0.758225000000     0.800740000000     2.35       
Al       Al     0.963783333333     0.819425000000     0.706733333333     2.35       
Al       Al     0.910300000000     0.989600000000     0.955883333333     2.35       
P        P      0.145383333333     0.012275000000     0.323953333333    -1.025      
P        P      0.060183333333     0.025225000000     0.206033333333    -1.025      
P        P      0.035016666667     0.087675000000     0.078543333333    -1.025      
P        P      0.088483333333     0.159450000000     0.011946666667    -1.025      
P        P      0.146450000000     0.235225000000     0.099353333333    -1.025      
P        P      0.145383333333     0.012275000000     0.657286666667    -1.025      
P        P      0.060183333333     0.025225000000     0.539366666667    -1.025      
P        P      0.035016666667     0.087675000000     0.411876666667    -1.025      
P        P      0.088483333333     0.159450000000     0.345280000000    -1.025      
P        P      0.146450000000     0.235225000000     0.432686666667    -1.025      
P        P      0.145383333333     0.012275000000     0.990620000000    -1.025      
P        P      0.060183333333     0.025225000000     0.872700000000    -1.025      
P        P      0.035016666667     0.087675000000     0.745210000000    -1.025      
P        P      0.088483333333     0.159450000000     0.678613333333    -1.025      
P        P      0.146450000000     0.235225000000     0.766020000000    -1.025      
P        P      0.145383333333     0.262275000000     0.323953333333    -1.025      
P        P      0.060183333333     0.275225000000     0.206033333333    -1.025      
P        P      0.035016666667     0.337675000000     0.078543333333    -1.025      
P        P      0.088483333333     0.409450000000     0.011946666667    -1.025      
P        P      0.146450000000     0.485225000000     0.099353333333    -1.025      
P        P      0.145383333333     0.262275000000     0.657286666667    -1.025      
P        P      0.060183333333     0.275225000000     0.539366666667    -1.025      
P        P      0.035016666667     0.337675000000     0.411876666667    -1.025      
P        P      0.088483333333     0.409450000000     0.345280000000    -1.025      
P        P      0.146450000000     0.485225000000     0.432686666667    -1.025      
P        P      0.145383333333     0.262275000000     0.990620000000    -1.025      
P        P      0.060183333333     0.275225000000     0.872700000000    -1.025      
P        P      0.035016666667     0.337675000000     0.745210000000    -1.025      
P        P      0.088483333333     0.409450000000     0.678613333333    -1.025      
P        P      0.146450000000     0.485225000000     0.766020000000    -1.025      
P        P      0.145383333333     0.512275000000     0.323953333333    -1.025      
P        P      0.060183333333     0.525225000000     0.206033333333    -1.025      
P        P      0.035016666667     0.587675000000     0.078543333333    -1.025      
P        P      0.088483333333     0.659450000000     0.011946666667    -1.025      
P        P      0.146450000000     0.735225000000     0.099353333333    -1.025      
P        P      0.145383333333     0.512275000000     0.657286666667    -1.025      
P        P      0.060183333333     0.525225000000     0.539366666667    -1.025      
P        P      0.035016666667     0.587675000000     0.411876666667    -1.025      
P        P      0.088483333333     0.659450000000     0.345280000000    -1.025      
P        P      0.146450000000     0.735225000000     0.432686666667    -1.025      
P        P      0.145383333333     0.512275000000     0.990620000000    -1.025      
P        P      0.060183333333     0.525225000000     0.872700000000    -1.025      
P        P      0.035016666667     0.587675000000     0.745210000000    -1.025      
P        P      0.088483333333     0.659450000000     0.678613333333    -1.025      
P        P      0.146450000000     0.735225000000     0.766020000000    -1.025      
P        P      0.145383333333     0.762275000000     0.323953333333    -1.025      
P        P      0.060183333333     0.775225000000     0.206033333333    -1.025      
P        P      0.035016666667     0.837675000000     0.078543333333    -1.025      
P        P      0.088483333333     0.909450000000     0.011946666667    -1.025      
P        P      0.146450000000     0.985225000000     0.099353333333    -1.025      
P        P      0.145383333333     0.762275000000     0.657286666667    -1.025      
P        P      0.060183333333     0.775225000000     0.539366666667    -1.025      
P        P      0.035016666667     0.837675000000     0.411876666667    -1.025      
P        P      0.088483333333     0.909450000000     0.345280000000    -1.025      
P        P      0.146450000000     0.985225000000     0.432686666667    -1.025      
P        P      0.145383333333     0.762275000000     0.990620000000    -1.025      
P        P      0.060183333333     0.775225000000     0.872700000000    -1.025      
P        P      0.035016666667     0.837675000000     0.745210000000    -1.025      
P        P      0.088483333333     0.909450000000     0.678613333333    -1.025      
P        P      0.146450000000     0.985225000000     0.766020000000    -1.025      
P        P      0.312050000000     0.012275000000     0.323953333333    -1.025      
P        P      0.226850000000     0.025225000000     0.206033333333    -1.025      
P        P      0.201683333333     0.087675000000     0.078543333333    -1.025      
P        P      0.255150000000     0.159450000000     0.011946666667    -1.025      
P        P      0.313116666667     0.235225000000     0.099353333333    -1.025      
P        P      0.312050000000     0.012275000000     0.657286666667    -1.025      
P        P      0.226850000000     0.025225000000     0.539366666667    -1.025      
P        P      0.201683333333     0.087675000000     0.411876666667    -1.025      
P        P      0.255150000000     0.159450000000     0.345280000000    -1.025      
P        P      0.313116666667     0.235225000000     0.432686666667    -1.025      
P        P      0.312050000000     0.012275000000     0.990620000000    -1.025      
P        P      0.226850000000     0.025225000000     0.872700000000    -1.025      
P        P      0.201683333333     0.087675000000     0.745210000000    -1.025      
P        P      0.255150000000     0.159450000000     0.678613333333    -1.025      
P        P      0.313116666667     0.235225000000     0.766020000000    -1.025      
P        P      0.312050000000     0.262275000000     0.323953333333    -1.025      
P        P      0.226850000000     0.275225000000     0.206033333333    -1.025      
P        P      0.201683333333     0.337675000000     0.078543333333    -1.025      
P        P      0.255150000000     0.409450000000     0.011946666667    -1.025      
P        P      0.313116666667     0.485225000000     0.099353333333    -1.025      
P        P      0.312050000000     0.262275000000     0.657286666667    -1.025      
P        P      0.226850000000     0.275225000000     0.539366666667    -1.025      
P        P      0.201683333333     0.337675000000     0.411876666667    -1.025      
P        P      0.255150000000     0.409450000000     0.345280000000    -1.025      
P        P      0.313116666667     0.485225000000     0.432686666667    -1.025      
P        P      0.312050000000     0.262275000000     0.990620000000    -1.025      
P        P      0.226850000000     0.275225000000     0.872700000000    -1.025      
P        P      0.201683333333     0.337675000000     0.745210000000    -1.025      
P        P      0.255150000000     0.409450000000     0.678613333333    -1.025      
P        P      0.313116666667     0.485225000000     0.766020000000    -1.025      
P        P      0.312050000000     0.512275000000     0.323953333333    -1.025      
P        P      0.226850000000     0.525225000000     0.206033333333    -1.025      
P        P      0.201683333333     0.587675000000     0.078543333333    -1.025      
P        P      0.255150000000     0.659450000000     0.011946666667    -1.025      
P        P      0.313116666667     0.735225000000     0.099353333333    -1.025      
P        P      0.312050000000     0.512275000000     0.657286666667    -1.025      
P        P      0.226850000000     0.525225000000     0.539366666667    -1.025      
P        P      0.201683333333     0.587675000000     0.411876666667    -1.025      
P        P      0.255150000000     0.659450000000     0.345280000000    -1.025      
P        P      0.313116666667     0.735225000000     0.432686666667    -1.025      
P        P      0.312050000000     0.512275000000     0.990620000000    -1.025      
P        P      0.226850000000     0.525225000000     0.872700000000    -1.025      
P        P      0.201683333333     0.587675000000     0.745210000000    -1.025      
P        P      0.255150000000     0.659450000000     0.678613333333    -1.025      
P        P      0.313116666667     0.735225000000     0.766020000000    -1.025      
P        P      0.312050000000     0.762275000000     0.323953333333    -1.025      
P        P      0.226850000000     0.775225000000     0.206033333333    -1.025      
P        P      0.201683333333     0.837675000000     0.078543333333    -1.025      
P        P      0.255150000000     0.909450000000     0.011946666667    -1.025      
P        P      0.313116666667     0.985225000000     0.099353333333    -1.025      
P        P      0.312050000000     0.762275000000     0.657286666667    -1.025      
P        P      0.226850000000     0.775225000000     0.539366666667    -1.025      
P        P      0.201683333333     0.837675000000     0.411876666667    -1.025      
P        P      0.255150000000     0.909450000000     0.345280000000    -1.025      
P        P      0.313116666667     0.985225000000     0.432686666667    -1.025      
P        P      0.312050000000     0.762275000000     0.990620000000    -1.025      
P        P      0.226850000000     0.775225000000     0.872700000000    -1.025      
P        P      0.201683333333     0.837675000000     0.745210000000    -1.025      
P        P      0.255150000000     0.909450000000     0.678613333333    -1.025      
P        P      0.313116666667     0.985225000000     0.766020000000    -1.025      
P        P      0.478716666667     0.012275000000     0.323953333333    -1.025      
P        P      0.393516666667     0.025225000000     0.206033333333    -1.025      
P        P      0.368350000000     0.087675000000     0.078543333333    -1.025      
P        P      0.421816666667     0.159450000000     0.011946666667    -1.025      
P        P      0.479783333333     0.235225000000     0.099353333333    -1.025      
P        P      0.478716666667     0.012275000000     0.657286666667    -1.025      
P        P      0.393516666667     0.025225000000     0.539366666667    -1.025      
P        P      0.368350000000     0.087675000000     0.411876666667    -1.025      
P        P      0.421816666667     0.159450000000     0.345280000000    -1.025      
P        P      0.479783333333     0.235225000000     0.432686666667    -1.025      
P        P      0.478716666667     0.012275000000     0.990620000000    -1.025      
P        P      0.393516666667     0.025225000000     0.872700000000    -1.025      
P        P      0.368350000000     0.087675000000     0.745210000000    -1.025      
P        P      0.421816666667     0.159450000000     0.678613333333    -1.025      
P        P      0.479783333333     0.235225000000     0.766020000000    -1.025      
P        P      0.478716666667     0.262275000000     0.323953333333    -1.025      
P        P      0.393516666667     0.275225000000     0.206033333333    -1.025      
P        P      0.368350000000     0.337675000000     0.078543333333    -1.025      
P        P      0.421816666667     0.409450000000     0.011946666667    -1.025      
P        P      0.479783333333     0.485225000000     0.099353333333    -1.025      
P        P      0.478716666667     0.262275000000     0.657286666667    -1.025      
P        P      0.393516666667     0.275225000000     0.539366666667    -1.025      
P        P      0.368350000000     0.337675000000     0.411876666667    -1.025      
P        P      0.421816666667     0.409450000000     0.345280000000    -1.025      
P        P      0.479783333333     0.485225000000     0.432686666667    -1.025      
P        P      0.478716666667     0.262275000000     0.990620000000    -1.025      
P        P      0.393516666667     0.275225000000     0.872700000000    -1.025      
P        P      0.368350000000     0.337675000000     0.745210000000    -1.025      
P        P      0.421816666667     0.409450000000     0.678613333333    -1.025      
P        P      0.479783333333     0.485225000000     0.766020000000    -1.025      
P        P      0.478716666667     0.512275000000     0.323953333333    -1.025      
P        P      0.393516666667     0.525225000000     0.206033333333    -1.025      
P        P      0.368350000000     0.587675000000     0.078543333333    -1.025      
P        P      0.421816666667     0.659450000000     0.011946666667    -1.025      
P        P      0.479783333333     0.735225000000     0.099353333333    -1.025      
P        P      0.478716666667     0.512275000000     0.657286666667    -1.025      
P        P      0.393516666667     0.525225000000     0.539366666667    -1.025      
P        P      0.368350000000     0.587675000000     0.411876666667    -1.025      
P        P      0.421816666667     0.659450000000     0.345280000000    -1.025      
P        P      0.479783333333     0.735225000000     0.432686666667    -1.025      
P        P      0.478716666667     0.512275000000     0.990620000000    -1.025      
P        P      0.393516666667     0.525225000000     0.872700000000    -1.025      
P        P      0.368350000000     0.587675000000     0.745210000000    -1.025      
P        P      0.421816666667     0.659450000000     0.678613333333    -1.025      
P        P      0.479783333333     0.735225000000     0.766020000000    -1.025      
P        P      0.478716666667     0.762275000000     0.323953333333    -1.025      
P        P      0.393516666667     0.775225000000     0.206033333333    -1.025      
P        P      0.368350000000     0.837675000000     0.078543333333    -1.025      
P        P      0.421816666667     0.909450000000     0.011946666667    -1.025      
P        P      0.479783333333     0.985225000000     0.099353333333    -1.025      
P        P      0.478716666667     0.762275000000     0.657286666667    -1.025      
P        P      0.393516666667     0.775225000000     0.539366666667    -1.025      
P        P      0.368350000000     0.837675000000     0.411876666667    -1.025      
P        P      0.421816666667     0.909450000000     0.345280000000    -1.025      
P        P      0.479783333333     0.985225000000     0.432686666667    -1.025      
P        P      0.478716666667     0.762275000000     0.990620000000    -1.025      
P        P      0.393516666667     0.775225000000     0.872700000000    -1.025      
P        P      0.368350000000     0.837675000000     0.745210000000    -1.025      
P        P      0.421816666667     0.909450000000     0.678613333333    -1.025      
P        P      0.479783333333     0.985225000000     0.766020000000    -1.025      
P        P      0.645383333333     0.012275000000     0.323953333333    -1.025      
P        P      0.560183333333     0.025225000000     0.206033333333    -1.025      
P        P      0.535016666667     0.087675000000     0.078543333333    -1.025      
P        P      0.588483333333     0.159450000000     0.011946666667    -1.025      
P        P      0.646450000000     0.235225000000     0.099353333333    -1.025      
P        P      0.645383333333     0.012275000000     0.657286666667    -1.025      
P        P      0.560183333333     0.025225000000     0.539366666667    -1.025      
P        P      0.535016666667     0.087675000000     0.411876666667    -1.025      
P        P      0.588483333333     0.159450000000     0.345280000000    -1.025      
P        P      0.646450000000     0.235225000000     0.432686666667    -1.025      
P        P      0.645383333333     0.012275000000     0.990620000000    -1.025      
P        P      0.560183333333     0.025225000000     0.872700000000    -1.025      
P        P      0.535016666667     0.087675000000     0.745210000000    -1.025      
P        P      0.588483333333     0.159450000000     0.678613333333    -1.025      
P        P      0.646450000000     0.235225000000     0.766020000000    -1.025      
P        P      0.645383333333     0.262275000000     0.323953333333    -1.025      
P        P      0.560183333333     0.275225000000     0.206033333333    -1.025      
P        P      0.535016666667     0.337675000000     0.078543333333    -1.025      
P        P      0.588483333333     0.409450000000     0.011946666667    -1.025      
P        P      0.646450000000     0.485225000000     0.099353333333    -1.025      
P        P      0.645383333333     0.262275000000     0.657286666667    -1.025      
P        P      0.560183333333     0.275225000000     0.539366666667    -1.025      
P        P      0.535016666667     0.337675000000     0.411876666667    -1.025      
P        P      0.588483333333     0.409450000000     0.345280000000    -1.025      
P        P      0.646450000000     0.485225000000     0.432686666667    -1.025      
P        P      0.645383333333     0.262275000000     0.990620000000    -1.025      
P        P      0.560183333333     0.275225000000     0.872700000000    -1.025      
P        P      0.535016666667     0.337675000000     0.745210000000    -1.025      
P        P      0.588483333333     0.409450000000     0.678613333333    -1.025      
P        P      0.646450000000     0.485225000000     0.766020000000    -1.025      
P        P      0.645383333333     0.512275000000     0.323953333333    -1.025      
P        P      0.560183333333     0.525225000000     0.206033333333    -1.025      
P        P      0.535016666667     0.587675000000     0.078543333333    -1.025      
P        P      0.588483333333     0.659450000000     0.011946666667    -1.025      
P        P      0.646450000000     0.735225000000     0.099353333333    -1.025      
P        P      0.645383333333     0.512275000000     0.657286666667    -1.025      
P        P      0.560183333333     0.525225000000     0.539366666667    -1.025      
P        P      0.535016666667     0.587675000000     0.411876666667    -1.025      
P        P      0.588483333333     0.659450000000     0.345280000000    -1.025      
P        P      0.646450000000     0.735225000000     0.432686666667    -1.025      
P        P      0.645383333333     0.512275000000     0.990620000000    -1.025      
P        P      0.560183333333     0.525225000000     0.872700000000    -1.025      
P        P      0.535016666667     0.587675000000     0.745210000000    -1.025      
P        P      0.588483333333     0.659450000000     0.678613333333    -1.025      
P        P      0.646450000000     0.735225000000     0.766020000000    -1.025      
P        P      0.645383333333     0.762275000000     0.323953333333    -1.025      
P        P      0.560183333333     0.775225000000     0.206033333333    -1.025      
P        P      0.535016666667     0.837675000000     0.078543333333    -1.025      
P        P      0.588483333333     0.909450000000     0.011946666667    -1.025      
P        P      0.646450000000     0.985225000000     0.099353333333    -1.025      
P        P      0.645383333333     0.762275000000     0.657286666667    -1.025      
P        P      0.560183333333     0.775225000000     0.539366666667    -1.025      
P        P      0.535016666667     0.837675000000     0.411876666667    -1.025      
P        P      0.588483333333     0.909450000000     0.345280000000    -1.025      
P        P      0.646450000000     0.985225000000     0.432686666667    -1.025      
P        P      0.645383333333     0.762275000000     0.990620000000    -1.025      
P        P      0.560183333333     0.775225000000     0.872700000000    -1.025      
P        P      0.535016666667     0.837675000000     0.745210000000    -1.025      
P        P      0.588483333333     0.909450000000     0.678613333333    -1.025      
P        P      0.646450000000     0.985225000000     0.766020000000    -1.025      
P        P      0.812050000000     0.012275000000     0.323953333333    -1.025      
P        P      0.726850000000     0.025225000000     0.206033333333    -1.025      
P        P      0.701683333333     0.087675000000     0.078543333333    -1.025      
P        P      0.755150000000     0.159450000000     0.011946666667    -1.025      
P        P      0.813116666667     0.235225000000     0.099353333333    -1.025      
P        P      0.812050000000     0.012275000000     0.657286666667    -1.025      
P        P      0.726850000000     0.025225000000     0.539366666667    -1.025      
P        P      0.701683333333     0.087675000000     0.411876666667    -1.025      
P        P      0.755150000000     0.159450000000     0.345280000000    -1.025      
P        P      0.813116666667     0.235225000000     0.432686666667    -1.025      
P        P      0.812050000000     0.012275000000     0.990620000000    -1.025      
P        P      0.726850000000     0.025225000000     0.872700000000    -1.025      
P        P      0.701683333333     0.087675000000     0.745210000000    -1.025      
P        P      0.755150000000     0.159450000000     0.678613333333    -1.025      
P        P      0.813116666667     0.235225000000     0.766020000000    -1.025      
P        P      0.812050000000     0.262275000000     0.323953333333    -1.025      
P        P      0.726850000000     0.275225000000     0.206033333333    -1.025      
P        P      0.701683333333     0.337675000000     0.078543333333    -1.025      
P        P      0.755150000000     0.409450000000     0.011946666667    -1.025      
P        P      0.813116666667     0.485225000000     0.099353333333    -1.025      
P        P      0.812050000000     0.262275000000     0.657286666667    -1.025      
P        P      0.726850000000     0.275225000000     0.539366666667    -1.025      
P        P      0.701683333333     0.337675000000     0.411876666667    -1.025      
P        P      0.755150000000     0.409450000000     0.345280000000    -1.025      
P        P      0.813116666667     0.485225000000     0.432686666667    -1.025      
P        P      0.812050000000     0.262275000000     0.990620000000    -1.025      
P        P      0.726850000000     0.275225000000     0.872700000000    -1.025      
P        P      0.701683333333     0.337675000000     0.745210000000    -1.025      
P        P      0.755150000000     0.409450000000     0.678613333333    -1.025      
P        P      0.813116666667     0.485225000000     0.766020000000    -1.025      
P        P      0.812050000000     0.512275000000     0.323953333333    -1.025      
P        P      0.726850000000     0.525225000000     0.206033333333    -1.025      
P        P      0.701683333333     0.587675000000     0.078543333333    -1.025      
P        P      0.755150000000     0.659450000000     0.011946666667    -1.025      
P        P      0.813116666667     0.735225000000     0.099353333333    -1.025      
P        P      0.812050000000     0.512275000000     0.657286666667    -1.025      
P        P      0.726850000000     0.525225000000     0.539366666667    -1.025      
P        P      0.701683333333     0.587675000000     0.411876666667    -1.025      
P        P      0.755150000000     0.659450000000     0.345280000000    -1.025      
P        P      0.813116666667     0.735225000000     0.432686666667    -1.025      
P        P      0.812050000000     0.512275000000     0.990620000000    -1.025      
P        P      0.726850000000     0.525225000000     0.872700000000    -1.025      
P        P      0.701683333333     0.587675000000     0.745210000000    -1.025      
P        P      0.755150000000     0.659450000000     0.678613333333    -1.025      
P        P      0.813116666667     0.735225000000     0.766020000000    -1.025      
P        P      0.812050000000     0.762275000000     0.323953333333    -1.025      
P        P      0.726850000000     0.775225000000     0.206033333333    -1.025      
P        P      0.701683333333     0.837675000000     0.078543333333    -1.025      
P        P      0.755150000000     0.909450000000     0.011946666667    -1.025      
P        P      0.813116666667     0.985225000000     0.099353333333    -1.025      
P        P      0.812050000000     0.762275000000     0.657286666667    -1.025      
P        P      0.726850000000     0.775225000000     0.539366666667    -1.025      
P        P      0.701683333333     0.837675000000     0.411876666667    -1.025      
P        P      0.755150000000     0.909450000000     0.345280000000    -1.025      
P        P      0.813116666667     0.985225000000     0.432686666667    -1.025      
P        P      0.812050000000     0.762275000000     0.990620000000    -1.025      
P        P      0.726850000000     0.775225000000     0.872700000000    -1.025      
P        P      0.701683333333     0.837675000000     0.745210000000    -1.025      
P        P      0.755150000000     0.909450000000     0.678613333333    -1.025      
P        P      0.813116666667     0.985225000000     0.766020000000    -1.025      
P        P      0.978716666667     0.012275000000     0.323953333333    -1.025      
P        P      0.893516666667     0.025225000000     0.206033333333    -1.025      
P        P      0.868350000000     0.087675000000     0.078543333333    -1.025      
P        P      0.921816666667     0.159450000000     0.011946666667    -1.025      
P        P      0.979783333333     0.235225000000     0.099353333333    -1.025      
P        P      0.978716666667     0.012275000000     0.657286666667    -1.025      
P        P      0.893516666667     0.025225000000     0.539366666667    -1.025      
P        P      0.868350000000     0.087675000000     0.411876666667    -1.025      
P        P      0.921816666667     0.159450000000     0.345280000000    -1.025      
P        P      0.979783333333     0.235225000000     0.432686666667    -1.025      
P        P      0.978716666667     0.012275000000     0.990620000000    -1.025      
P        P      0.893516666667     0.025225000000     0.872700000000    -1.025      
P        P      0.868350000000     0.087675000000     0.745210000000    -1.025      
P        P      0.921816666667     0.159450000000     0.678613333333    -1.025      
P        P      0.979783333333     0.235225000000     0.766020000000    -1.025      
P        P      0.978716666667     0.262275000000     0.323953333333    -1.025      
P        P      0.893516666667     0.275225000000     0.206033333333    -1.025      
P        P      0.868350000000     0.337675000000     0.078543333333    -1.025      
P        P      0.921816666667     0.409450000000     0.011946666667    -1.025      
P        P      0.979783333333     0.485225000000     0.099353333333    -1.025      
P        P      0.978716666667     0.262275000000     0.657286666667    -1.025      
P        P      0.893516666667     0.275225000000     0.539366666667    -1.025      
P        P      0.868350000000     0.337675000000     0.411876666667    -1.025      
P        P      0.921816666667     0.409450000000     0.345280000000    -1.025      
P        P      0.979783333333     0.485225000000     0.432686666667    -1.025      
P        P      0.978716666667     0.262275000000     0.990620000000    -1.025      
P        P      0.893516666667     0.275225000000     0.872700000000    -1.025      
P        P      0.868350000000     0.337675000000     0.745210000000    -1.025      
P        P      0.921816666667     0.409450000000     0.678613333333    -1.025      
P        P      0.979783333333     0.485225000000     0.766020000000    -1.025      
P        P      0.978716666667     0.512275000000     0.323953333333    -1.025      
P        P      0.893516666667     0.525225000000     0.206033333333    -1.025      
P        P      0.868350000000     0.587675000000     0.078543333333    -1.025      
P        P      0.921816666667     0.659450000000     0.011946666667    -1.025      
P        P      0.979783333333     0.735225000000     0.099353333333    -1.025      
P        P      0.978716666667     0.512275000000     0.657286666667    -1.025      
P        P      0.893516666667     0.525225000000     0.539366666667    -1.025      
P        P      0.868350000000     0.587675000000     0.411876666667    -1.025      
P        P      0.921816666667     0.659450000000     0.345280000000    -1.025      
P        P      0.979783333333     0.735225000000     0.432686666667    -1.025      
P        P      0.978716666667     0.512275000000     0.990620000000    -1.025      
P        P      0.893516666667     0.525225000000     0.872700000000    -1.025      
P        P      0.868350000000     0.587675000000     0.745210000000    -1.025      
P        P      0.921816666667     0.659450000000     0.678613333333    -1.025      
P        P      0.979783333333     0.735225000000     0.766020000000    -1.025      
P        P      0.978716666667     0.762275000000     0.323953333333    -1.025      
P        P      0.893516666667     0.775225000000     0.206033333333    -1.025      
P        P      0.868350000000     0.837675000000     0.078543333333    -1.025      
P        P      0.921816666667     0.909450000000     0.011946666667    -1.025      
P        P      0.979783333333     0.985225000000     0.099353333333    -1.025      
P        P      0.978716666667     0.762275000000     0.657286666667    -1.025      
P        P      0.893516666667     0.775225000000     0.539366666667    -1.025      
P        P      0.868350000000     0.837675000000     0.411876666667    -1.025      
P        P      0.921816666667     0.909450000000     0.345280000000    -1.025      
P        P      0.979783333333     0.985225000000     0.432686666667    -1.025      
P        P      0.978716666667     0.762275000000     0.990620000000    -1.025      
P        P      0.893516666667     0.775225000000     0.872700000000    -1.025      
P        P      0.868350000000     0.837675000000     0.745210000000    -1.025      
P        P      0.921816666667     0.909450000000     0.678613333333    -1.025      
P        P      0.979783333333     0.985225000000     0.766020000000    -1.025      


