data_[CoreMOF]NAHHAI_clean

_audit_creation_method RASPA-1.0
_audit_creation_date 2025-1-26
_audit_author_name ''

_cell_length_a    31.3866
_cell_length_b    28.748
_cell_length_c    40.3632
_cell_angle_alpha 90
_cell_angle_beta  112.694
_cell_angle_gamma 90
_cell_volume      33600.1

_symmetry_cell_setting          triclinic
_symmetry_space_group_name_Hall 'P 1'
_symmetry_space_group_name_H-M  'P 1'
_symmetry_Int_Tables_number     1

_symmetry_equiv_pos_as_xyz 'x,y,z'

loop_
_atom_site_label
_atom_site_type_symbol
_atom_site_fract_x
_atom_site_fract_y
_atom_site_fract_z
_atom_site_charge
N1       N      0.045166666667     0.024100000000     0.086866666667    -0.105688   
N2       N      0.032133333333     0.039300000000     0.053933333333    -0.0756561  
N3       N      0.288166666667     0.149100000000     0.246466666667    -0.105339   
N4       N      0.301200000000     0.164300000000     0.279400000000    -0.0752786  
N5       N      0.288166666667     0.225900000000     0.246466666667    -0.105341   
N6       N      0.301200000000     0.210700000000     0.279400000000    -0.075279   
N7       N      0.045166666667     0.100900000000     0.086866666667    -0.105644   
N8       N      0.032133333333     0.085700000000     0.053933333333    -0.0756421  
Cd1      Cd     0.285433333333     0.062500000000     0.241706666667     0.468288   
O1       O      0.211666666667     0.062500000000     0.207533333333    -0.276554   
O2       O      0.201866666667     0.062500000000     0.258900000000    -0.244814   
O3       O      0.038100000000     0.062500000000     0.254233333333    -0.244453   
O4       O      0.314533333333     0.062500000000     0.200500000000    -0.263571   
O5       O      0.300833333333     0.062500000000     0.300800000000    -0.250305   
C1       C      0.188000000000     0.062500000000     0.226366666667     0.311991   
C2       C      0.135933333333     0.062500000000     0.204833333333    -0.0378457  
C3       C      0.119800000000     0.062500000000     0.168400000000    -0.0292324  
H1       H      0.140500000000     0.062500000000     0.157000000000     0.0731946  
C4       C      0.071433333333     0.062500000000     0.147566666667     0.0036428  
C5       C      0.042133333333     0.062500000000     0.164333333333    -0.0372021  
H2       H      0.010433333333     0.062500000000     0.151166666667     0.0707609  
C6       C      0.059866666667     0.062500000000     0.202666666667    -0.028347   
C7       C      0.104733333333     0.062500000000     0.222600000000    -0.0154542  
H3       H      0.115466666667     0.062500000000     0.247533333333     0.0718945  
C8       C      0.023700000000     0.062500000000     0.219666666667     0.262325   
C9       C      0.054633333333     0.062500000000     0.107533333333     0.123712   
Cd2      Cd     0.047900000000     0.187500000000     0.091626666667     0.4671     
O6       O      0.121666666667     0.187500000000     0.125800000000    -0.276499   
O7       O      0.131466666667     0.187500000000     0.074433333333    -0.244867   
O8       O      0.295233333333     0.187500000000     0.079100000000    -0.243992   
O9       O      0.018800000000     0.187500000000     0.132833333333    -0.268941   
O10      O      0.032500000000     0.187500000000     0.032533333333    -0.250758   
C10      C      0.145333333333     0.187500000000     0.106966666667     0.312236   
C11      C      0.197400000000     0.187500000000     0.128500000000    -0.0383297  
C12      C      0.213533333333     0.187500000000     0.164933333333    -0.0287064  
H4       H      0.192833333333     0.187500000000     0.176333333333     0.0729994  
C13      C      0.261900000000     0.187500000000     0.185766666667     0.00339126 
C14      C      0.291200000000     0.187500000000     0.169000000000    -0.0359303  
H5       H      0.322900000000     0.187500000000     0.182166666667     0.0722575  
C15      C      0.273466666667     0.187500000000     0.130666666667    -0.029701   
C16      C      0.228600000000     0.187500000000     0.110733333333    -0.0141163  
H6       H      0.217866666667     0.187500000000     0.085800000000     0.0715184  
C17      C      0.309633333333     0.187500000000     0.113666666667     0.269356   
C18      C      0.278700000000     0.187500000000     0.225800000000     0.124368   
Cd3      Cd     0.000000000000     0.000000000000     0.000000000000     0.387236   
Cd4      Cd     0.000000000000     0.125000000000     0.000000000000     0.387366   
N1       N      0.045166666667     0.024100000000     0.420200000000    -0.105685   
N2       N      0.032133333333     0.039300000000     0.387266666667    -0.0756329  
N3       N      0.288166666667     0.149100000000     0.579800000000    -0.105339   
N4       N      0.301200000000     0.164300000000     0.612733333333    -0.0752811  
N5       N      0.288166666667     0.225900000000     0.579800000000    -0.105341   
N6       N      0.301200000000     0.210700000000     0.612733333333    -0.0752815  
N7       N      0.045166666667     0.100900000000     0.420200000000    -0.105641   
N8       N      0.032133333333     0.085700000000     0.387266666667    -0.075619   
Cd1      Cd     0.285433333333     0.062500000000     0.575040000000     0.468284   
O1       O      0.211666666667     0.062500000000     0.540866666667    -0.276554   
O2       O      0.201866666667     0.062500000000     0.592233333333    -0.244819   
O3       O      0.038100000000     0.062500000000     0.587566666667    -0.244457   
O4       O      0.314533333333     0.062500000000     0.533833333333    -0.263569   
O5       O      0.300833333333     0.062500000000     0.634133333333    -0.250309   
C1       C      0.188000000000     0.062500000000     0.559700000000     0.311988   
C2       C      0.135933333333     0.062500000000     0.538166666667    -0.0378473  
C3       C      0.119800000000     0.062500000000     0.501733333333    -0.0292374  
H1       H      0.140500000000     0.062500000000     0.490333333333     0.0732     
C4       C      0.071433333333     0.062500000000     0.480900000000     0.00364354 
C5       C      0.042133333333     0.062500000000     0.497666666667    -0.0372082  
H2       H      0.010433333333     0.062500000000     0.484500000000     0.0707657  
C6       C      0.059866666667     0.062500000000     0.536000000000    -0.0283473  
C7       C      0.104733333333     0.062500000000     0.555933333333    -0.0154588  
H3       H      0.115466666667     0.062500000000     0.580866666667     0.0718912  
C8       C      0.023700000000     0.062500000000     0.553000000000     0.262316   
C9       C      0.054633333333     0.062500000000     0.440866666667     0.123722   
Cd2      Cd     0.047900000000     0.187500000000     0.424960000000     0.467104   
O6       O      0.121666666667     0.187500000000     0.459133333333    -0.27649    
O7       O      0.131466666667     0.187500000000     0.407766666667    -0.244785   
O8       O      0.295233333333     0.187500000000     0.412433333333    -0.243924   
O9       O      0.018800000000     0.187500000000     0.466166666667    -0.268947   
O10      O      0.032500000000     0.187500000000     0.365866666667    -0.250712   
C10      C      0.145333333333     0.187500000000     0.440300000000     0.312212   
C11      C      0.197400000000     0.187500000000     0.461833333333    -0.0382834  
C12      C      0.213533333333     0.187500000000     0.498266666667    -0.0287344  
H4       H      0.192833333333     0.187500000000     0.509666666667     0.0730074  
C13      C      0.261900000000     0.187500000000     0.519100000000     0.00341094 
C14      C      0.291200000000     0.187500000000     0.502333333333    -0.0359565  
H5       H      0.322900000000     0.187500000000     0.515500000000     0.0722646  
C15      C      0.273466666667     0.187500000000     0.464000000000    -0.0296578  
C16      C      0.228600000000     0.187500000000     0.444066666667    -0.0141547  
H6       H      0.217866666667     0.187500000000     0.419133333333     0.0715869  
C17      C      0.309633333333     0.187500000000     0.447000000000     0.26934    
C18      C      0.278700000000     0.187500000000     0.559133333333     0.124358   
Cd3      Cd     0.000000000000     0.000000000000     0.333333333333     0.387793   
Cd4      Cd     0.000000000000     0.125000000000     0.333333333333     0.387924   
N1       N      0.045166666667     0.024100000000     0.753533333333    -0.105684   
N2       N      0.032133333333     0.039300000000     0.720600000000    -0.0756353  
N3       N      0.288166666667     0.149100000000     0.913133333333    -0.105316   
N4       N      0.301200000000     0.164300000000     0.946066666667    -0.0750762  
N5       N      0.288166666667     0.225900000000     0.913133333333    -0.105318   
N6       N      0.301200000000     0.210700000000     0.946066666667    -0.0750766  
N7       N      0.045166666667     0.100900000000     0.753533333333    -0.10564    
N8       N      0.032133333333     0.085700000000     0.720600000000    -0.0756214  
Cd1      Cd     0.285433333333     0.062500000000     0.908373333333     0.468363   
O1       O      0.211666666667     0.062500000000     0.874200000000    -0.276536   
O2       O      0.201866666667     0.062500000000     0.925566666667    -0.244653   
O3       O      0.038100000000     0.062500000000     0.920900000000    -0.244284   
O4       O      0.314533333333     0.062500000000     0.867166666667    -0.263555   
O5       O      0.300833333333     0.062500000000     0.967466666667    -0.249824   
C1       C      0.188000000000     0.062500000000     0.893033333333     0.311946   
C2       C      0.135933333333     0.062500000000     0.871500000000    -0.0377634  
C3       C      0.119800000000     0.062500000000     0.835066666667    -0.0292847  
H1       H      0.140500000000     0.062500000000     0.823666666667     0.0732159  
C4       C      0.071433333333     0.062500000000     0.814233333333     0.00368025 
C5       C      0.042133333333     0.062500000000     0.831000000000    -0.0372514  
H2       H      0.010433333333     0.062500000000     0.817833333333     0.0707834  
C6       C      0.059866666667     0.062500000000     0.869333333333    -0.0282682  
C7       C      0.104733333333     0.062500000000     0.889266666667    -0.0155213  
H3       H      0.115466666667     0.062500000000     0.914200000000     0.0720083  
C8       C      0.023700000000     0.062500000000     0.886333333333     0.262301   
C9       C      0.054633333333     0.062500000000     0.774200000000     0.123708   
Cd2      Cd     0.047900000000     0.187500000000     0.758293333333     0.467101   
O6       O      0.121666666667     0.187500000000     0.792466666667    -0.276487   
O7       O      0.131466666667     0.187500000000     0.741100000000    -0.24479    
O8       O      0.295233333333     0.187500000000     0.745766666667    -0.243929   
O9       O      0.018800000000     0.187500000000     0.799500000000    -0.26893    
O10      O      0.032500000000     0.187500000000     0.699200000000    -0.250716   
C10      C      0.145333333333     0.187500000000     0.773633333333     0.312207   
C11      C      0.197400000000     0.187500000000     0.795166666667    -0.0382801  
C12      C      0.213533333333     0.187500000000     0.831600000000    -0.0287462  
H4       H      0.192833333333     0.187500000000     0.843000000000     0.0730218  
C13      C      0.261900000000     0.187500000000     0.852433333333     0.00342024 
C14      C      0.291200000000     0.187500000000     0.835666666667    -0.0359693  
H5       H      0.322900000000     0.187500000000     0.848833333333     0.0722852  
C15      C      0.273466666667     0.187500000000     0.797333333333    -0.0296532  
C16      C      0.228600000000     0.187500000000     0.777400000000    -0.0141638  
H6       H      0.217866666667     0.187500000000     0.752466666667     0.071585   
C17      C      0.309633333333     0.187500000000     0.780333333333     0.269334   
C18      C      0.278700000000     0.187500000000     0.892466666667     0.124382   
Cd3      Cd     0.000000000000     0.000000000000     0.666666666667     0.387784   
Cd4      Cd     0.000000000000     0.125000000000     0.666666666667     0.387915   
N1       N      0.045166666667     0.274100000000     0.086866666667    -0.105642   
N2       N      0.032133333333     0.289300000000     0.053933333333    -0.075638   
N3       N      0.288166666667     0.399100000000     0.246466666667    -0.105341   
N4       N      0.301200000000     0.414300000000     0.279400000000    -0.075279   
N5       N      0.288166666667     0.475900000000     0.246466666667    -0.105341   
N6       N      0.301200000000     0.460700000000     0.279400000000    -0.0752791  
N7       N      0.045166666667     0.350900000000     0.086866666667    -0.105642   
N8       N      0.032133333333     0.335700000000     0.053933333333    -0.0756381  
Cd1      Cd     0.285433333333     0.312500000000     0.241706666667     0.468335   
O1       O      0.211666666667     0.312500000000     0.207533333333    -0.276527   
O2       O      0.201866666667     0.312500000000     0.258900000000    -0.244788   
O3       O      0.038100000000     0.312500000000     0.254233333333    -0.244429   
O4       O      0.314533333333     0.312500000000     0.200500000000    -0.263542   
O5       O      0.300833333333     0.312500000000     0.300800000000    -0.250292   
C1       C      0.188000000000     0.312500000000     0.226366666667     0.31199    
C2       C      0.135933333333     0.312500000000     0.204833333333    -0.0378145  
C3       C      0.119800000000     0.312500000000     0.168400000000    -0.02924    
H1       H      0.140500000000     0.312500000000     0.157000000000     0.0732179  
C4       C      0.071433333333     0.312500000000     0.147566666667     0.00367509 
C5       C      0.042133333333     0.312500000000     0.164333333333    -0.0372101  
H2       H      0.010433333333     0.312500000000     0.151166666667     0.0707849  
C6       C      0.059866666667     0.312500000000     0.202666666667    -0.0283153  
C7       C      0.104733333333     0.312500000000     0.222600000000    -0.0154648  
H3       H      0.115466666667     0.312500000000     0.247533333333     0.0719137  
C8       C      0.023700000000     0.312500000000     0.219666666667     0.262327   
C9       C      0.054633333333     0.312500000000     0.107533333333     0.123722   
Cd2      Cd     0.047900000000     0.437500000000     0.091626666667     0.4671     
O6       O      0.121666666667     0.437500000000     0.125800000000    -0.276499   
O7       O      0.131466666667     0.437500000000     0.074433333333    -0.244864   
O8       O      0.295233333333     0.437500000000     0.079100000000    -0.243989   
O9       O      0.018800000000     0.437500000000     0.132833333333    -0.268942   
O10      O      0.032500000000     0.437500000000     0.032533333333    -0.250757   
C10      C      0.145333333333     0.437500000000     0.106966666667     0.312238   
C11      C      0.197400000000     0.437500000000     0.128500000000    -0.038327   
C12      C      0.213533333333     0.437500000000     0.164933333333    -0.0287055  
H4       H      0.192833333333     0.437500000000     0.176333333333     0.0729988  
C13      C      0.261900000000     0.437500000000     0.185766666667     0.00339111 
C14      C      0.291200000000     0.437500000000     0.169000000000    -0.0359296  
H5       H      0.322900000000     0.437500000000     0.182166666667     0.0722566  
C15      C      0.273466666667     0.437500000000     0.130666666667    -0.0296989  
C16      C      0.228600000000     0.437500000000     0.110733333333    -0.0141146  
H6       H      0.217866666667     0.437500000000     0.085800000000     0.0715213  
C17      C      0.309633333333     0.437500000000     0.113666666667     0.269357   
C18      C      0.278700000000     0.437500000000     0.225800000000     0.124367   
Cd3      Cd     0.000000000000     0.250000000000     0.000000000000     0.387372   
Cd4      Cd     0.000000000000     0.375000000000     0.000000000000     0.387372   
N1       N      0.045166666667     0.274100000000     0.420200000000    -0.105639   
N2       N      0.032133333333     0.289300000000     0.387266666667    -0.0756149  
N3       N      0.288166666667     0.399100000000     0.579800000000    -0.105341   
N4       N      0.301200000000     0.414300000000     0.612733333333    -0.0752816  
N5       N      0.288166666667     0.475900000000     0.579800000000    -0.105341   
N6       N      0.301200000000     0.460700000000     0.612733333333    -0.0752816  
N7       N      0.045166666667     0.350900000000     0.420200000000    -0.105639   
N8       N      0.032133333333     0.335700000000     0.387266666667    -0.0756149  
Cd1      Cd     0.285433333333     0.312500000000     0.575040000000     0.46833    
O1       O      0.211666666667     0.312500000000     0.540866666667    -0.276527   
O2       O      0.201866666667     0.312500000000     0.592233333333    -0.244794   
O3       O      0.038100000000     0.312500000000     0.587566666667    -0.244434   
O4       O      0.314533333333     0.312500000000     0.533833333333    -0.263541   
O5       O      0.300833333333     0.312500000000     0.634133333333    -0.250296   
C1       C      0.188000000000     0.312500000000     0.559700000000     0.311988   
C2       C      0.135933333333     0.312500000000     0.538166666667    -0.0378161  
C3       C      0.119800000000     0.312500000000     0.501733333333    -0.029245   
H1       H      0.140500000000     0.312500000000     0.490333333333     0.0732234  
C4       C      0.071433333333     0.312500000000     0.480900000000     0.00367583 
C5       C      0.042133333333     0.312500000000     0.497666666667    -0.0372162  
H2       H      0.010433333333     0.312500000000     0.484500000000     0.0707897  
C6       C      0.059866666667     0.312500000000     0.536000000000    -0.0283156  
C7       C      0.104733333333     0.312500000000     0.555933333333    -0.0154693  
H3       H      0.115466666667     0.312500000000     0.580866666667     0.0719104  
C8       C      0.023700000000     0.312500000000     0.553000000000     0.262317   
C9       C      0.054633333333     0.312500000000     0.440866666667     0.123732   
Cd2      Cd     0.047900000000     0.437500000000     0.424960000000     0.467105   
O6       O      0.121666666667     0.437500000000     0.459133333333    -0.27649    
O7       O      0.131466666667     0.437500000000     0.407766666667    -0.244781   
O8       O      0.295233333333     0.437500000000     0.412433333333    -0.243921   
O9       O      0.018800000000     0.437500000000     0.466166666667    -0.268948   
O10      O      0.032500000000     0.437500000000     0.365866666667    -0.250711   
C10      C      0.145333333333     0.437500000000     0.440300000000     0.312213   
C11      C      0.197400000000     0.437500000000     0.461833333333    -0.0382807  
C12      C      0.213533333333     0.437500000000     0.498266666667    -0.0287335  
H4       H      0.192833333333     0.437500000000     0.509666666667     0.0730068  
C13      C      0.261900000000     0.437500000000     0.519100000000     0.00341078 
C14      C      0.291200000000     0.437500000000     0.502333333333    -0.0359558  
H5       H      0.322900000000     0.437500000000     0.515500000000     0.0722637  
C15      C      0.273466666667     0.437500000000     0.464000000000    -0.0296557  
C16      C      0.228600000000     0.437500000000     0.444066666667    -0.014153   
H6       H      0.217866666667     0.437500000000     0.419133333333     0.0715898  
C17      C      0.309633333333     0.437500000000     0.447000000000     0.269341   
C18      C      0.278700000000     0.437500000000     0.559133333333     0.124358   
Cd3      Cd     0.000000000000     0.250000000000     0.333333333333     0.387929   
Cd4      Cd     0.000000000000     0.375000000000     0.333333333333     0.387929   
N1       N      0.045166666667     0.274100000000     0.753533333333    -0.105638   
N2       N      0.032133333333     0.289300000000     0.720600000000    -0.0756173  
N3       N      0.288166666667     0.399100000000     0.913133333333    -0.105318   
N4       N      0.301200000000     0.414300000000     0.946066666667    -0.0750767  
N5       N      0.288166666667     0.475900000000     0.913133333333    -0.105318   
N6       N      0.301200000000     0.460700000000     0.946066666667    -0.0750767  
N7       N      0.045166666667     0.350900000000     0.753533333333    -0.105638   
N8       N      0.032133333333     0.335700000000     0.720600000000    -0.0756173  
Cd1      Cd     0.285433333333     0.312500000000     0.908373333333     0.468409   
O1       O      0.211666666667     0.312500000000     0.874200000000    -0.276509   
O2       O      0.201866666667     0.312500000000     0.925566666667    -0.244628   
O3       O      0.038100000000     0.312500000000     0.920900000000    -0.24426    
O4       O      0.314533333333     0.312500000000     0.867166666667    -0.263526   
O5       O      0.300833333333     0.312500000000     0.967466666667    -0.249811   
C1       C      0.188000000000     0.312500000000     0.893033333333     0.311946   
C2       C      0.135933333333     0.312500000000     0.871500000000    -0.0377322  
C3       C      0.119800000000     0.312500000000     0.835066666667    -0.0292922  
H1       H      0.140500000000     0.312500000000     0.823666666667     0.0732392  
C4       C      0.071433333333     0.312500000000     0.814233333333     0.00371254 
C5       C      0.042133333333     0.312500000000     0.831000000000    -0.0372594  
H2       H      0.010433333333     0.312500000000     0.817833333333     0.0708074  
C6       C      0.059866666667     0.312500000000     0.869333333333    -0.0282365  
C7       C      0.104733333333     0.312500000000     0.889266666667    -0.0155319  
H3       H      0.115466666667     0.312500000000     0.914200000000     0.0720275  
C8       C      0.023700000000     0.312500000000     0.886333333333     0.262302   
C9       C      0.054633333333     0.312500000000     0.774200000000     0.123718   
Cd2      Cd     0.047900000000     0.437500000000     0.758293333333     0.467102   
O6       O      0.121666666667     0.437500000000     0.792466666667    -0.276487   
O7       O      0.131466666667     0.437500000000     0.741100000000    -0.244787   
O8       O      0.295233333333     0.437500000000     0.745766666667    -0.243926   
O9       O      0.018800000000     0.437500000000     0.799500000000    -0.268931   
O10      O      0.032500000000     0.437500000000     0.699200000000    -0.250715   
C10      C      0.145333333333     0.437500000000     0.773633333333     0.312208   
C11      C      0.197400000000     0.437500000000     0.795166666667    -0.0382774  
C12      C      0.213533333333     0.437500000000     0.831600000000    -0.0287454  
H4       H      0.192833333333     0.437500000000     0.843000000000     0.0730212  
C13      C      0.261900000000     0.437500000000     0.852433333333     0.00342009 
C14      C      0.291200000000     0.437500000000     0.835666666667    -0.0359686  
H5       H      0.322900000000     0.437500000000     0.848833333333     0.0722843  
C15      C      0.273466666667     0.437500000000     0.797333333333    -0.0296511  
C16      C      0.228600000000     0.437500000000     0.777400000000    -0.0141621  
H6       H      0.217866666667     0.437500000000     0.752466666667     0.071588   
C17      C      0.309633333333     0.437500000000     0.780333333333     0.269335   
C18      C      0.278700000000     0.437500000000     0.892466666667     0.124381   
Cd3      Cd     0.000000000000     0.250000000000     0.666666666667     0.38792    
Cd4      Cd     0.000000000000     0.375000000000     0.666666666667     0.38792    
N1       N      0.045166666667     0.524100000000     0.086866666667    -0.105643   
N2       N      0.032133333333     0.539300000000     0.053933333333    -0.0756384  
N3       N      0.288166666667     0.649100000000     0.246466666667    -0.105341   
N4       N      0.301200000000     0.664300000000     0.279400000000    -0.0752794  
N5       N      0.288166666667     0.725900000000     0.246466666667    -0.105341   
N6       N      0.301200000000     0.710700000000     0.279400000000    -0.0752795  
N7       N      0.045166666667     0.600900000000     0.086866666667    -0.105643   
N8       N      0.032133333333     0.585700000000     0.053933333333    -0.0756385  
Cd1      Cd     0.285433333333     0.562500000000     0.241706666667     0.468334   
O1       O      0.211666666667     0.562500000000     0.207533333333    -0.276528   
O2       O      0.201866666667     0.562500000000     0.258900000000    -0.244789   
O3       O      0.038100000000     0.562500000000     0.254233333333    -0.24443    
O4       O      0.314533333333     0.562500000000     0.200500000000    -0.263543   
O5       O      0.300833333333     0.562500000000     0.300800000000    -0.250293   
C1       C      0.188000000000     0.562500000000     0.226366666667     0.31199    
C2       C      0.135933333333     0.562500000000     0.204833333333    -0.0378155  
C3       C      0.119800000000     0.562500000000     0.168400000000    -0.02924    
H1       H      0.140500000000     0.562500000000     0.157000000000     0.0732173  
C4       C      0.071433333333     0.562500000000     0.147566666667     0.00367424 
C5       C      0.042133333333     0.562500000000     0.164333333333    -0.0372101  
H2       H      0.010433333333     0.562500000000     0.151166666667     0.0707842  
C6       C      0.059866666667     0.562500000000     0.202666666667    -0.0283163  
C7       C      0.104733333333     0.562500000000     0.222600000000    -0.0154648  
H3       H      0.115466666667     0.562500000000     0.247533333333     0.0719131  
C8       C      0.023700000000     0.562500000000     0.219666666667     0.262327   
C9       C      0.054633333333     0.562500000000     0.107533333333     0.123722   
Cd2      Cd     0.047900000000     0.687500000000     0.091626666667     0.467099   
O6       O      0.121666666667     0.687500000000     0.125800000000    -0.2765     
O7       O      0.131466666667     0.687500000000     0.074433333333    -0.244864   
O8       O      0.295233333333     0.687500000000     0.079100000000    -0.24399    
O9       O      0.018800000000     0.687500000000     0.132833333333    -0.268943   
O10      O      0.032500000000     0.687500000000     0.032533333333    -0.250758   
C10      C      0.145333333333     0.687500000000     0.106966666667     0.312237   
C11      C      0.197400000000     0.687500000000     0.128500000000    -0.038328   
C12      C      0.213533333333     0.687500000000     0.164933333333    -0.0287056  
H4       H      0.192833333333     0.687500000000     0.176333333333     0.0729982  
C13      C      0.261900000000     0.687500000000     0.185766666667     0.00339028 
C14      C      0.291200000000     0.687500000000     0.169000000000    -0.0359296  
H5       H      0.322900000000     0.687500000000     0.182166666667     0.072256   
C15      C      0.273466666667     0.687500000000     0.130666666667    -0.0296998  
C16      C      0.228600000000     0.687500000000     0.110733333333    -0.0141146  
H6       H      0.217866666667     0.687500000000     0.085800000000     0.0715208  
C17      C      0.309633333333     0.687500000000     0.113666666667     0.269357   
C18      C      0.278700000000     0.687500000000     0.225800000000     0.124367   
Cd3      Cd     0.000000000000     0.500000000000     0.000000000000     0.387371   
Cd4      Cd     0.000000000000     0.625000000000     0.000000000000     0.387371   
N1       N      0.045166666667     0.524100000000     0.420200000000    -0.105639   
N2       N      0.032133333333     0.539300000000     0.387266666667    -0.0756153  
N3       N      0.288166666667     0.649100000000     0.579800000000    -0.105342   
N4       N      0.301200000000     0.664300000000     0.612733333333    -0.075282   
N5       N      0.288166666667     0.725900000000     0.579800000000    -0.105342   
N6       N      0.301200000000     0.710700000000     0.612733333333    -0.075282   
N7       N      0.045166666667     0.600900000000     0.420200000000    -0.105639   
N8       N      0.032133333333     0.585700000000     0.387266666667    -0.0756153  
Cd1      Cd     0.285433333333     0.562500000000     0.575040000000     0.468329   
O1       O      0.211666666667     0.562500000000     0.540866666667    -0.276528   
O2       O      0.201866666667     0.562500000000     0.592233333333    -0.244795   
O3       O      0.038100000000     0.562500000000     0.587566666667    -0.244434   
O4       O      0.314533333333     0.562500000000     0.533833333333    -0.263542   
O5       O      0.300833333333     0.562500000000     0.634133333333    -0.250297   
C1       C      0.188000000000     0.562500000000     0.559700000000     0.311987   
C2       C      0.135933333333     0.562500000000     0.538166666667    -0.0378171  
C3       C      0.119800000000     0.562500000000     0.501733333333    -0.029245   
H1       H      0.140500000000     0.562500000000     0.490333333333     0.0732227  
C4       C      0.071433333333     0.562500000000     0.480900000000     0.00367499 
C5       C      0.042133333333     0.562500000000     0.497666666667    -0.0372162  
H2       H      0.010433333333     0.562500000000     0.484500000000     0.070789   
C6       C      0.059866666667     0.562500000000     0.536000000000    -0.0283166  
C7       C      0.104733333333     0.562500000000     0.555933333333    -0.0154693  
H3       H      0.115466666667     0.562500000000     0.580866666667     0.0719099  
C8       C      0.023700000000     0.562500000000     0.553000000000     0.262317   
C9       C      0.054633333333     0.562500000000     0.440866666667     0.123731   
Cd2      Cd     0.047900000000     0.687500000000     0.424960000000     0.467104   
O6       O      0.121666666667     0.687500000000     0.459133333333    -0.276491   
O7       O      0.131466666667     0.687500000000     0.407766666667    -0.244782   
O8       O      0.295233333333     0.687500000000     0.412433333333    -0.243922   
O9       O      0.018800000000     0.687500000000     0.466166666667    -0.268948   
O10      O      0.032500000000     0.687500000000     0.365866666667    -0.250711   
C10      C      0.145333333333     0.687500000000     0.440300000000     0.312213   
C11      C      0.197400000000     0.687500000000     0.461833333333    -0.0382816  
C12      C      0.213533333333     0.687500000000     0.498266666667    -0.0287336  
H4       H      0.192833333333     0.687500000000     0.509666666667     0.0730062  
C13      C      0.261900000000     0.687500000000     0.519100000000     0.00340995 
C14      C      0.291200000000     0.687500000000     0.502333333333    -0.0359559  
H5       H      0.322900000000     0.687500000000     0.515500000000     0.0722631  
C15      C      0.273466666667     0.687500000000     0.464000000000    -0.0296566  
C16      C      0.228600000000     0.687500000000     0.444066666667    -0.014153   
H6       H      0.217866666667     0.687500000000     0.419133333333     0.0715893  
C17      C      0.309633333333     0.687500000000     0.447000000000     0.26934    
C18      C      0.278700000000     0.687500000000     0.559133333333     0.124357   
Cd3      Cd     0.000000000000     0.500000000000     0.333333333333     0.387929   
Cd4      Cd     0.000000000000     0.625000000000     0.333333333333     0.387928   
N1       N      0.045166666667     0.524100000000     0.753533333333    -0.105638   
N2       N      0.032133333333     0.539300000000     0.720600000000    -0.0756177  
N3       N      0.288166666667     0.649100000000     0.913133333333    -0.105318   
N4       N      0.301200000000     0.664300000000     0.946066666667    -0.0750771  
N5       N      0.288166666667     0.725900000000     0.913133333333    -0.105318   
N6       N      0.301200000000     0.710700000000     0.946066666667    -0.0750771  
N7       N      0.045166666667     0.600900000000     0.753533333333    -0.105638   
N8       N      0.032133333333     0.585700000000     0.720600000000    -0.0756177  
Cd1      Cd     0.285433333333     0.562500000000     0.908373333333     0.468408   
O1       O      0.211666666667     0.562500000000     0.874200000000    -0.27651    
O2       O      0.201866666667     0.562500000000     0.925566666667    -0.244628   
O3       O      0.038100000000     0.562500000000     0.920900000000    -0.244261   
O4       O      0.314533333333     0.562500000000     0.867166666667    -0.263527   
O5       O      0.300833333333     0.562500000000     0.967466666667    -0.249811   
C1       C      0.188000000000     0.562500000000     0.893033333333     0.311945   
C2       C      0.135933333333     0.562500000000     0.871500000000    -0.0377332  
C3       C      0.119800000000     0.562500000000     0.835066666667    -0.0292923  
H1       H      0.140500000000     0.562500000000     0.823666666667     0.0732386  
C4       C      0.071433333333     0.562500000000     0.814233333333     0.00371169 
C5       C      0.042133333333     0.562500000000     0.831000000000    -0.0372594  
H2       H      0.010433333333     0.562500000000     0.817833333333     0.0708068  
C6       C      0.059866666667     0.562500000000     0.869333333333    -0.0282375  
C7       C      0.104733333333     0.562500000000     0.889266666667    -0.0155318  
H3       H      0.115466666667     0.562500000000     0.914200000000     0.0720269  
C8       C      0.023700000000     0.562500000000     0.886333333333     0.262302   
C9       C      0.054633333333     0.562500000000     0.774200000000     0.123717   
Cd2      Cd     0.047900000000     0.687500000000     0.758293333333     0.467101   
O6       O      0.121666666667     0.687500000000     0.792466666667    -0.276488   
O7       O      0.131466666667     0.687500000000     0.741100000000    -0.244787   
O8       O      0.295233333333     0.687500000000     0.745766666667    -0.243926   
O9       O      0.018800000000     0.687500000000     0.799500000000    -0.268932   
O10      O      0.032500000000     0.687500000000     0.699200000000    -0.250715   
C10      C      0.145333333333     0.687500000000     0.773633333333     0.312208   
C11      C      0.197400000000     0.687500000000     0.795166666667    -0.0382784  
C12      C      0.213533333333     0.687500000000     0.831600000000    -0.0287454  
H4       H      0.192833333333     0.687500000000     0.843000000000     0.0730206  
C13      C      0.261900000000     0.687500000000     0.852433333333     0.00341926 
C14      C      0.291200000000     0.687500000000     0.835666666667    -0.0359686  
H5       H      0.322900000000     0.687500000000     0.848833333333     0.0722837  
C15      C      0.273466666667     0.687500000000     0.797333333333    -0.0296521  
C16      C      0.228600000000     0.687500000000     0.777400000000    -0.0141621  
H6       H      0.217866666667     0.687500000000     0.752466666667     0.0715875  
C17      C      0.309633333333     0.687500000000     0.780333333333     0.269335   
C18      C      0.278700000000     0.687500000000     0.892466666667     0.12438    
Cd3      Cd     0.000000000000     0.500000000000     0.666666666667     0.387919   
Cd4      Cd     0.000000000000     0.625000000000     0.666666666667     0.387919   
N1       N      0.045166666667     0.774100000000     0.086866666667    -0.105643   
N2       N      0.032133333333     0.789300000000     0.053933333333    -0.0756384  
N3       N      0.288166666667     0.899100000000     0.246466666667    -0.105339   
N4       N      0.301200000000     0.914300000000     0.279400000000    -0.0752688  
N5       N      0.288166666667     0.975900000000     0.246466666667    -0.10529    
N6       N      0.301200000000     0.960700000000     0.279400000000    -0.0752297  
N7       N      0.045166666667     0.850900000000     0.086866666667    -0.105645   
N8       N      0.032133333333     0.835700000000     0.053933333333    -0.0756391  
Cd1      Cd     0.285433333333     0.812500000000     0.241706666667     0.468335   
O1       O      0.211666666667     0.812500000000     0.207533333333    -0.276528   
O2       O      0.201866666667     0.812500000000     0.258900000000    -0.244784   
O3       O      0.038100000000     0.812500000000     0.254233333333    -0.244425   
O4       O      0.314533333333     0.812500000000     0.200500000000    -0.263544   
O5       O      0.300833333333     0.812500000000     0.300800000000    -0.250291   
C1       C      0.188000000000     0.812500000000     0.226366666667     0.311991   
C2       C      0.135933333333     0.812500000000     0.204833333333    -0.037812   
C3       C      0.119800000000     0.812500000000     0.168400000000    -0.0292395  
H1       H      0.140500000000     0.812500000000     0.157000000000     0.0732168  
C4       C      0.071433333333     0.812500000000     0.147566666667     0.00367433 
C5       C      0.042133333333     0.812500000000     0.164333333333    -0.0372096  
H2       H      0.010433333333     0.812500000000     0.151166666667     0.0707837  
C6       C      0.059866666667     0.812500000000     0.202666666667    -0.0283135  
C7       C      0.104733333333     0.812500000000     0.222600000000    -0.0154632  
H3       H      0.115466666667     0.812500000000     0.247533333333     0.0719171  
C8       C      0.023700000000     0.812500000000     0.219666666667     0.262329   
C9       C      0.054633333333     0.812500000000     0.107533333333     0.123721   
Cd2      Cd     0.047900000000     0.937500000000     0.091626666667     0.467154   
O6       O      0.121666666667     0.937500000000     0.125800000000    -0.276471   
O7       O      0.131466666667     0.937500000000     0.074433333333    -0.244832   
O8       O      0.295233333333     0.937500000000     0.079100000000    -0.243957   
O9       O      0.018800000000     0.937500000000     0.132833333333    -0.268912   
O10      O      0.032500000000     0.937500000000     0.032533333333    -0.250699   
C10      C      0.145333333333     0.937500000000     0.106966666667     0.312235   
C11      C      0.197400000000     0.937500000000     0.128500000000    -0.0382926  
C12      C      0.213533333333     0.937500000000     0.164933333333    -0.0287155  
H4       H      0.192833333333     0.937500000000     0.176333333333     0.0730235  
C13      C      0.261900000000     0.937500000000     0.185766666667     0.00342569 
C14      C      0.291200000000     0.937500000000     0.169000000000    -0.0359401  
H5       H      0.322900000000     0.937500000000     0.182166666667     0.0722825  
C15      C      0.273466666667     0.937500000000     0.130666666667    -0.0296637  
C16      C      0.228600000000     0.937500000000     0.110733333333    -0.014128   
H6       H      0.217866666667     0.937500000000     0.085800000000     0.0715442  
C17      C      0.309633333333     0.937500000000     0.113666666667     0.269357   
C18      C      0.278700000000     0.937500000000     0.225800000000     0.124378   
Cd3      Cd     0.000000000000     0.750000000000     0.000000000000     0.387371   
Cd4      Cd     0.000000000000     0.875000000000     0.000000000000     0.38739    
N1       N      0.045166666667     0.774100000000     0.420200000000    -0.105639   
N2       N      0.032133333333     0.789300000000     0.387266666667    -0.0756153  
N3       N      0.288166666667     0.899100000000     0.579800000000    -0.105339   
N4       N      0.301200000000     0.914300000000     0.612733333333    -0.0752714  
N5       N      0.288166666667     0.975900000000     0.579800000000    -0.105291   
N6       N      0.301200000000     0.960700000000     0.612733333333    -0.0752323  
N7       N      0.045166666667     0.850900000000     0.420200000000    -0.105642   
N8       N      0.032133333333     0.835700000000     0.387266666667    -0.0756159  
Cd1      Cd     0.285433333333     0.812500000000     0.575040000000     0.46833    
O1       O      0.211666666667     0.812500000000     0.540866666667    -0.276528   
O2       O      0.201866666667     0.812500000000     0.592233333333    -0.244789   
O3       O      0.038100000000     0.812500000000     0.587566666667    -0.24443    
O4       O      0.314533333333     0.812500000000     0.533833333333    -0.263542   
O5       O      0.300833333333     0.812500000000     0.634133333333    -0.250295   
C1       C      0.188000000000     0.812500000000     0.559700000000     0.311989   
C2       C      0.135933333333     0.812500000000     0.538166666667    -0.0378136  
C3       C      0.119800000000     0.812500000000     0.501733333333    -0.0292445  
H1       H      0.140500000000     0.812500000000     0.490333333333     0.0732223  
C4       C      0.071433333333     0.812500000000     0.480900000000     0.00367508 
C5       C      0.042133333333     0.812500000000     0.497666666667    -0.0372157  
H2       H      0.010433333333     0.812500000000     0.484500000000     0.0707885  
C6       C      0.059866666667     0.812500000000     0.536000000000    -0.0283139  
C7       C      0.104733333333     0.812500000000     0.555933333333    -0.0154677  
H3       H      0.115466666667     0.812500000000     0.580866666667     0.0719138  
C8       C      0.023700000000     0.812500000000     0.553000000000     0.262319   
C9       C      0.054633333333     0.812500000000     0.440866666667     0.123731   
Cd2      Cd     0.047900000000     0.937500000000     0.424960000000     0.467158   
O6       O      0.121666666667     0.937500000000     0.459133333333    -0.276462   
O7       O      0.131466666667     0.937500000000     0.407766666667    -0.244749   
O8       O      0.295233333333     0.937500000000     0.412433333333    -0.243888   
O9       O      0.018800000000     0.937500000000     0.466166666667    -0.268917   
O10      O      0.032500000000     0.937500000000     0.365866666667    -0.250653   
C10      C      0.145333333333     0.937500000000     0.440300000000     0.312211   
C11      C      0.197400000000     0.937500000000     0.461833333333    -0.0382463  
C12      C      0.213533333333     0.937500000000     0.498266666667    -0.0287435  
H4       H      0.192833333333     0.937500000000     0.509666666667     0.0730316  
C13      C      0.261900000000     0.937500000000     0.519100000000     0.00344535 
C14      C      0.291200000000     0.937500000000     0.502333333333    -0.0359663  
H5       H      0.322900000000     0.937500000000     0.515500000000     0.0722896  
C15      C      0.273466666667     0.937500000000     0.464000000000    -0.0296205  
C16      C      0.228600000000     0.937500000000     0.444066666667    -0.0141665  
H6       H      0.217866666667     0.937500000000     0.419133333333     0.0716127  
C17      C      0.309633333333     0.937500000000     0.447000000000     0.269341   
C18      C      0.278700000000     0.937500000000     0.559133333333     0.124368   
Cd3      Cd     0.000000000000     0.750000000000     0.333333333333     0.387928   
Cd4      Cd     0.000000000000     0.875000000000     0.333333333333     0.387947   
N1       N      0.045166666667     0.774100000000     0.753533333333    -0.105639   
N2       N      0.032133333333     0.789300000000     0.720600000000    -0.0756177  
N3       N      0.288166666667     0.899100000000     0.913133333333    -0.105316   
N4       N      0.301200000000     0.914300000000     0.946066666667    -0.0750665  
N5       N      0.288166666667     0.975900000000     0.913133333333    -0.105267   
N6       N      0.301200000000     0.960700000000     0.946066666667    -0.0750274  
N7       N      0.045166666667     0.850900000000     0.753533333333    -0.105641   
N8       N      0.032133333333     0.835700000000     0.720600000000    -0.0756184  
Cd1      Cd     0.285433333333     0.812500000000     0.908373333333     0.468409   
O1       O      0.211666666667     0.812500000000     0.874200000000    -0.276509   
O2       O      0.201866666667     0.812500000000     0.925566666667    -0.244623   
O3       O      0.038100000000     0.812500000000     0.920900000000    -0.244257   
O4       O      0.314533333333     0.812500000000     0.867166666667    -0.263528   
O5       O      0.300833333333     0.812500000000     0.967466666667    -0.24981    
C1       C      0.188000000000     0.812500000000     0.893033333333     0.311947   
C2       C      0.135933333333     0.812500000000     0.871500000000    -0.0377297  
C3       C      0.119800000000     0.812500000000     0.835066666667    -0.0292917  
H1       H      0.140500000000     0.812500000000     0.823666666667     0.0732381  
C4       C      0.071433333333     0.812500000000     0.814233333333     0.00371178 
C5       C      0.042133333333     0.812500000000     0.831000000000    -0.0372589  
H2       H      0.010433333333     0.812500000000     0.817833333333     0.0708062  
C6       C      0.059866666667     0.812500000000     0.869333333333    -0.0282348  
C7       C      0.104733333333     0.812500000000     0.889266666667    -0.0155303  
H3       H      0.115466666667     0.812500000000     0.914200000000     0.0720309  
C8       C      0.023700000000     0.812500000000     0.886333333333     0.262304   
C9       C      0.054633333333     0.812500000000     0.774200000000     0.123717   
Cd2      Cd     0.047900000000     0.937500000000     0.758293333333     0.467155   
O6       O      0.121666666667     0.937500000000     0.792466666667    -0.276459   
O7       O      0.131466666667     0.937500000000     0.741100000000    -0.244755   
O8       O      0.295233333333     0.937500000000     0.745766666667    -0.243893   
O9       O      0.018800000000     0.937500000000     0.799500000000    -0.2689     
O10      O      0.032500000000     0.937500000000     0.699200000000    -0.250657   
C10      C      0.145333333333     0.937500000000     0.773633333333     0.312205   
C11      C      0.197400000000     0.937500000000     0.795166666667    -0.0382431  
C12      C      0.213533333333     0.937500000000     0.831600000000    -0.0287553  
H4       H      0.192833333333     0.937500000000     0.843000000000     0.0730459  
C13      C      0.261900000000     0.937500000000     0.852433333333     0.00345464 
C14      C      0.291200000000     0.937500000000     0.835666666667    -0.0359791  
H5       H      0.322900000000     0.937500000000     0.848833333333     0.0723102  
C15      C      0.273466666667     0.937500000000     0.797333333333    -0.029616   
C16      C      0.228600000000     0.937500000000     0.777400000000    -0.0141755  
H6       H      0.217866666667     0.937500000000     0.752466666667     0.0716108  
C17      C      0.309633333333     0.937500000000     0.780333333333     0.269335   
C18      C      0.278700000000     0.937500000000     0.892466666667     0.124392   
Cd3      Cd     0.000000000000     0.750000000000     0.666666666667     0.387919   
Cd4      Cd     0.000000000000     0.875000000000     0.666666666667     0.387938   
N1       N      0.378500000000     0.024100000000     0.086866666667    -0.105388   
N2       N      0.365466666667     0.039300000000     0.053933333333    -0.0753161  
N3       N      0.621500000000     0.149100000000     0.246466666667    -0.105334   
N4       N      0.634533333333     0.164300000000     0.279400000000    -0.0752669  
N5       N      0.621500000000     0.225900000000     0.246466666667    -0.105336   
N6       N      0.634533333333     0.210700000000     0.279400000000    -0.0752673  
N7       N      0.378500000000     0.100900000000     0.086866666667    -0.105344   
N8       N      0.365466666667     0.085700000000     0.053933333333    -0.0753022  
Cd1      Cd     0.618766666667     0.062500000000     0.241706666667     0.468283   
O1       O      0.545000000000     0.062500000000     0.207533333333    -0.276599   
O2       O      0.535200000000     0.062500000000     0.258900000000    -0.244783   
O3       O      0.371433333333     0.062500000000     0.254233333333    -0.243913   
O4       O      0.647866666667     0.062500000000     0.200500000000    -0.263573   
O5       O      0.634166666667     0.062500000000     0.300800000000    -0.250293   
C1       C      0.521333333333     0.062500000000     0.226366666667     0.31218    
C2       C      0.469266666667     0.062500000000     0.204833333333    -0.0382759  
C3       C      0.453133333333     0.062500000000     0.168400000000    -0.0287669  
H1       H      0.473833333333     0.062500000000     0.157000000000     0.0730217  
C4       C      0.404766666667     0.062500000000     0.147566666667     0.00340165 
C5       C      0.375466666667     0.062500000000     0.164333333333    -0.0359716  
H2       H      0.343766666667     0.062500000000     0.151166666667     0.0722395  
C6       C      0.393200000000     0.062500000000     0.202666666667    -0.0296565  
C7       C      0.438066666667     0.062500000000     0.222600000000    -0.0141835  
H3       H      0.448800000000     0.062500000000     0.247533333333     0.0716197  
C8       C      0.357033333333     0.062500000000     0.219666666667     0.269329   
C9       C      0.387966666667     0.062500000000     0.107533333333     0.124337   
Cd2      Cd     0.381233333333     0.187500000000     0.091626666667     0.468323   
O6       O      0.455000000000     0.187500000000     0.125800000000    -0.276572   
O7       O      0.464800000000     0.187500000000     0.074433333333    -0.244837   
O8       O      0.628566666667     0.187500000000     0.079100000000    -0.243983   
O9       O      0.352133333333     0.187500000000     0.132833333333    -0.26355    
O10      O      0.365833333333     0.187500000000     0.032533333333    -0.25033    
C10      C      0.478666666667     0.187500000000     0.106966666667     0.312197   
C11      C      0.530733333333     0.187500000000     0.128500000000    -0.0382922  
C12      C      0.546866666667     0.187500000000     0.164933333333    -0.0287628  
H4       H      0.526166666667     0.187500000000     0.176333333333     0.0730442  
C13      C      0.595233333333     0.187500000000     0.185766666667     0.00341556 
C14      C      0.624533333333     0.187500000000     0.169000000000    -0.035977   
H5       H      0.656233333333     0.187500000000     0.182166666667     0.0722757  
C15      C      0.606800000000     0.187500000000     0.130666666667    -0.0296761  
C16      C      0.561933333333     0.187500000000     0.110733333333    -0.0141707  
H6       H      0.551200000000     0.187500000000     0.085800000000     0.0715636  
C17      C      0.642966666667     0.187500000000     0.113666666667     0.26933    
C18      C      0.612033333333     0.187500000000     0.225800000000     0.124364   
Cd3      Cd     0.333333333333     0.000000000000     0.000000000000     0.391801   
Cd4      Cd     0.333333333333     0.125000000000     0.000000000000     0.391931   
N1       N      0.378500000000     0.024100000000     0.420200000000    -0.105384   
N2       N      0.365466666667     0.039300000000     0.387266666667    -0.0752916  
N3       N      0.621500000000     0.149100000000     0.579800000000    -0.105334   
N4       N      0.634533333333     0.164300000000     0.612733333333    -0.0752694  
N5       N      0.621500000000     0.225900000000     0.579800000000    -0.105336   
N6       N      0.634533333333     0.210700000000     0.612733333333    -0.0752698  
N7       N      0.378500000000     0.100900000000     0.420200000000    -0.10534    
N8       N      0.365466666667     0.085700000000     0.387266666667    -0.0752776  
Cd1      Cd     0.618766666667     0.062500000000     0.575040000000     0.468278   
O1       O      0.545000000000     0.062500000000     0.540866666667    -0.276599   
O2       O      0.535200000000     0.062500000000     0.592233333333    -0.244789   
O3       O      0.371433333333     0.062500000000     0.587566666667    -0.243918   
O4       O      0.647866666667     0.062500000000     0.533833333333    -0.263571   
O5       O      0.634166666667     0.062500000000     0.634133333333    -0.250297   
C1       C      0.521333333333     0.062500000000     0.559700000000     0.312177   
C2       C      0.469266666667     0.062500000000     0.538166666667    -0.0382775  
C3       C      0.453133333333     0.062500000000     0.501733333333    -0.028772   
H1       H      0.473833333333     0.062500000000     0.490333333333     0.0730272  
C4       C      0.404766666667     0.062500000000     0.480900000000     0.00340287 
C5       C      0.375466666667     0.062500000000     0.497666666667    -0.0359773  
H2       H      0.343766666667     0.062500000000     0.484500000000     0.0722476  
C6       C      0.393200000000     0.062500000000     0.536000000000    -0.0296574  
C7       C      0.438066666667     0.062500000000     0.555933333333    -0.0141874  
H3       H      0.448800000000     0.062500000000     0.580866666667     0.0716163  
C8       C      0.357033333333     0.062500000000     0.553000000000     0.269326   
C9       C      0.387966666667     0.062500000000     0.440866666667     0.124347   
Cd2      Cd     0.381233333333     0.187500000000     0.424960000000     0.468331   
O6       O      0.455000000000     0.187500000000     0.459133333333    -0.276564   
O7       O      0.464800000000     0.187500000000     0.407766666667    -0.244754   
O8       O      0.628566666667     0.187500000000     0.412433333333    -0.243914   
O9       O      0.352133333333     0.187500000000     0.466166666667    -0.263546   
O10      O      0.365833333333     0.187500000000     0.365866666667    -0.250282   
C10      C      0.478666666667     0.187500000000     0.440300000000     0.312172   
C11      C      0.530733333333     0.187500000000     0.461833333333    -0.0382451  
C12      C      0.546866666667     0.187500000000     0.498266666667    -0.0287913  
H4       H      0.526166666667     0.187500000000     0.509666666667     0.0730524  
C13      C      0.595233333333     0.187500000000     0.519100000000     0.00343554 
C14      C      0.624533333333     0.187500000000     0.502333333333    -0.0360037  
H5       H      0.656233333333     0.187500000000     0.515500000000     0.0722829  
C15      C      0.606800000000     0.187500000000     0.464000000000    -0.0296322  
C16      C      0.561933333333     0.187500000000     0.444066666667    -0.0142098  
H6       H      0.551200000000     0.187500000000     0.419133333333     0.0716332  
C17      C      0.642966666667     0.187500000000     0.447000000000     0.269313   
C18      C      0.612033333333     0.187500000000     0.559133333333     0.124354   
Cd3      Cd     0.333333333333     0.000000000000     0.333333333333     0.392384   
Cd4      Cd     0.333333333333     0.125000000000     0.333333333333     0.392515   
N1       N      0.378500000000     0.024100000000     0.753533333333    -0.105383   
N2       N      0.365466666667     0.039300000000     0.720600000000    -0.0752942  
N3       N      0.621500000000     0.149100000000     0.913133333333    -0.105311   
N4       N      0.634533333333     0.164300000000     0.946066666667    -0.0750658  
N5       N      0.621500000000     0.225900000000     0.913133333333    -0.105313   
N6       N      0.634533333333     0.210700000000     0.946066666667    -0.0750662  
N7       N      0.378500000000     0.100900000000     0.753533333333    -0.105339   
N8       N      0.365466666667     0.085700000000     0.720600000000    -0.0752803  
Cd1      Cd     0.618766666667     0.062500000000     0.908373333333     0.468356   
O1       O      0.545000000000     0.062500000000     0.874200000000    -0.276581   
O2       O      0.535200000000     0.062500000000     0.925566666667    -0.244623   
O3       O      0.371433333333     0.062500000000     0.920900000000    -0.243746   
O4       O      0.647866666667     0.062500000000     0.867166666667    -0.263557   
O5       O      0.634166666667     0.062500000000     0.967466666667    -0.249815   
C1       C      0.521333333333     0.062500000000     0.893033333333     0.312135   
C2       C      0.469266666667     0.062500000000     0.871500000000    -0.0381923  
C3       C      0.453133333333     0.062500000000     0.835066666667    -0.0288209  
H1       H      0.473833333333     0.062500000000     0.823666666667     0.0730436  
C4       C      0.404766666667     0.062500000000     0.814233333333     0.00344097 
C5       C      0.375466666667     0.062500000000     0.831000000000    -0.0360247  
H2       H      0.343766666667     0.062500000000     0.817833333333     0.0722631  
C6       C      0.393200000000     0.062500000000     0.869333333333    -0.0295737  
C7       C      0.438066666667     0.062500000000     0.889266666667    -0.014254   
H3       H      0.448800000000     0.062500000000     0.914200000000     0.071734   
C8       C      0.357033333333     0.062500000000     0.886333333333     0.26929    
C9       C      0.387966666667     0.062500000000     0.774200000000     0.124332   
Cd2      Cd     0.381233333333     0.187500000000     0.758293333333     0.468327   
O6       O      0.455000000000     0.187500000000     0.792466666667    -0.27656    
O7       O      0.464800000000     0.187500000000     0.741100000000    -0.244759   
O8       O      0.628566666667     0.187500000000     0.745766666667    -0.243919   
O9       O      0.352133333333     0.187500000000     0.799500000000    -0.26354    
O10      O      0.365833333333     0.187500000000     0.699200000000    -0.250286   
C10      C      0.478666666667     0.187500000000     0.773633333333     0.312167   
C11      C      0.530733333333     0.187500000000     0.795166666667    -0.0382419  
C12      C      0.546866666667     0.187500000000     0.831600000000    -0.028803   
H4       H      0.526166666667     0.187500000000     0.843000000000     0.0730666  
C13      C      0.595233333333     0.187500000000     0.852433333333     0.00344471 
C14      C      0.624533333333     0.187500000000     0.835666666667    -0.0360162  
H5       H      0.656233333333     0.187500000000     0.848833333333     0.0723032  
C15      C      0.606800000000     0.187500000000     0.797333333333    -0.0296278  
C16      C      0.561933333333     0.187500000000     0.777400000000    -0.0142187  
H6       H      0.551200000000     0.187500000000     0.752466666667     0.0716314  
C17      C      0.642966666667     0.187500000000     0.780333333333     0.269307   
C18      C      0.612033333333     0.187500000000     0.892466666667     0.124377   
Cd3      Cd     0.333333333333     0.000000000000     0.666666666667     0.392376   
Cd4      Cd     0.333333333333     0.125000000000     0.666666666667     0.392507   
N1       N      0.378500000000     0.274100000000     0.086866666667    -0.105342   
N2       N      0.365466666667     0.289300000000     0.053933333333    -0.075298   
N3       N      0.621500000000     0.399100000000     0.246466666667    -0.105336   
N4       N      0.634533333333     0.414300000000     0.279400000000    -0.0752673  
N5       N      0.621500000000     0.475900000000     0.246466666667    -0.105336   
N6       N      0.634533333333     0.460700000000     0.279400000000    -0.0752674  
N7       N      0.378500000000     0.350900000000     0.086866666667    -0.105342   
N8       N      0.365466666667     0.335700000000     0.053933333333    -0.0752981  
Cd1      Cd     0.618766666667     0.312500000000     0.241706666667     0.468329   
O1       O      0.545000000000     0.312500000000     0.207533333333    -0.276572   
O2       O      0.535200000000     0.312500000000     0.258900000000    -0.244758   
O3       O      0.371433333333     0.312500000000     0.254233333333    -0.243889   
O4       O      0.647866666667     0.312500000000     0.200500000000    -0.263544   
O5       O      0.634166666667     0.312500000000     0.300800000000    -0.25028    
C1       C      0.521333333333     0.312500000000     0.226366666667     0.312179   
C2       C      0.469266666667     0.312500000000     0.204833333333    -0.0382447  
C3       C      0.453133333333     0.312500000000     0.168400000000    -0.0287744  
H1       H      0.473833333333     0.312500000000     0.157000000000     0.073045   
C4       C      0.404766666667     0.312500000000     0.147566666667     0.00343397 
C5       C      0.375466666667     0.312500000000     0.164333333333    -0.0359796  
H2       H      0.343766666667     0.312500000000     0.151166666667     0.0722636  
C6       C      0.393200000000     0.312500000000     0.202666666667    -0.0296249  
C7       C      0.438066666667     0.312500000000     0.222600000000    -0.014194   
H3       H      0.448800000000     0.312500000000     0.247533333333     0.0716389  
C8       C      0.357033333333     0.312500000000     0.219666666667     0.269331   
C9       C      0.387966666667     0.312500000000     0.107533333333     0.124347   
Cd2      Cd     0.381233333333     0.437500000000     0.091626666667     0.468324   
O6       O      0.455000000000     0.437500000000     0.125800000000    -0.276572   
O7       O      0.464800000000     0.437500000000     0.074433333333    -0.244834   
O8       O      0.628566666667     0.437500000000     0.079100000000    -0.24398    
O9       O      0.352133333333     0.437500000000     0.132833333333    -0.263551   
O10      O      0.365833333333     0.437500000000     0.032533333333    -0.250329   
C10      C      0.478666666667     0.437500000000     0.106966666667     0.312198   
C11      C      0.530733333333     0.437500000000     0.128500000000    -0.0382895  
C12      C      0.546866666667     0.437500000000     0.164933333333    -0.028762   
H4       H      0.526166666667     0.437500000000     0.176333333333     0.0730436  
C13      C      0.595233333333     0.437500000000     0.185766666667     0.0034154  
C14      C      0.624533333333     0.437500000000     0.169000000000    -0.0359763  
H5       H      0.656233333333     0.437500000000     0.182166666667     0.0722748  
C15      C      0.606800000000     0.437500000000     0.130666666667    -0.029674   
C16      C      0.561933333333     0.437500000000     0.110733333333    -0.014169   
H6       H      0.551200000000     0.437500000000     0.085800000000     0.0715666  
C17      C      0.642966666667     0.437500000000     0.113666666667     0.269331   
C18      C      0.612033333333     0.437500000000     0.225800000000     0.124363   
Cd3      Cd     0.333333333333     0.250000000000     0.000000000000     0.391937   
Cd4      Cd     0.333333333333     0.375000000000     0.000000000000     0.391937   
N1       N      0.378500000000     0.274100000000     0.420200000000    -0.105337   
N2       N      0.365466666667     0.289300000000     0.387266666667    -0.0752735  
N3       N      0.621500000000     0.399100000000     0.579800000000    -0.105336   
N4       N      0.634533333333     0.414300000000     0.612733333333    -0.0752699  
N5       N      0.621500000000     0.475900000000     0.579800000000    -0.105336   
N6       N      0.634533333333     0.460700000000     0.612733333333    -0.0752699  
N7       N      0.378500000000     0.350900000000     0.420200000000    -0.105338   
N8       N      0.365466666667     0.335700000000     0.387266666667    -0.0752735  
Cd1      Cd     0.618766666667     0.312500000000     0.575040000000     0.468324   
O1       O      0.545000000000     0.312500000000     0.540866666667    -0.276572   
O2       O      0.535200000000     0.312500000000     0.592233333333    -0.244763   
O3       O      0.371433333333     0.312500000000     0.587566666667    -0.243894   
O4       O      0.647866666667     0.312500000000     0.533833333333    -0.263542   
O5       O      0.634166666667     0.312500000000     0.634133333333    -0.250285   
C1       C      0.521333333333     0.312500000000     0.559700000000     0.312176   
C2       C      0.469266666667     0.312500000000     0.538166666667    -0.0382463  
C3       C      0.453133333333     0.312500000000     0.501733333333    -0.0287795  
H1       H      0.473833333333     0.312500000000     0.490333333333     0.0730505  
C4       C      0.404766666667     0.312500000000     0.480900000000     0.0034352  
C5       C      0.375466666667     0.312500000000     0.497666666667    -0.0359852  
H2       H      0.343766666667     0.312500000000     0.484500000000     0.0722717  
C6       C      0.393200000000     0.312500000000     0.536000000000    -0.0296257  
C7       C      0.438066666667     0.312500000000     0.555933333333    -0.0141979  
H3       H      0.448800000000     0.312500000000     0.580866666667     0.0716355  
C8       C      0.357033333333     0.312500000000     0.553000000000     0.269328   
C9       C      0.387966666667     0.312500000000     0.440866666667     0.124357   
Cd2      Cd     0.381233333333     0.437500000000     0.424960000000     0.468332   
O6       O      0.455000000000     0.437500000000     0.459133333333    -0.276564   
O7       O      0.464800000000     0.437500000000     0.407766666667    -0.24475    
O8       O      0.628566666667     0.437500000000     0.412433333333    -0.243911   
O9       O      0.352133333333     0.437500000000     0.466166666667    -0.263547   
O10      O      0.365833333333     0.437500000000     0.365866666667    -0.250281   
C10      C      0.478666666667     0.437500000000     0.440300000000     0.312173   
C11      C      0.530733333333     0.437500000000     0.461833333333    -0.0382425  
C12      C      0.546866666667     0.437500000000     0.498266666667    -0.0287905  
H4       H      0.526166666667     0.437500000000     0.509666666667     0.0730518  
C13      C      0.595233333333     0.437500000000     0.519100000000     0.00343539 
C14      C      0.624533333333     0.437500000000     0.502333333333    -0.0360029  
H5       H      0.656233333333     0.437500000000     0.515500000000     0.072282   
C15      C      0.606800000000     0.437500000000     0.464000000000    -0.0296302  
C16      C      0.561933333333     0.437500000000     0.444066666667    -0.014208   
H6       H      0.551200000000     0.437500000000     0.419133333333     0.0716361  
C17      C      0.642966666667     0.437500000000     0.447000000000     0.269314   
C18      C      0.612033333333     0.437500000000     0.559133333333     0.124353   
Cd3      Cd     0.333333333333     0.250000000000     0.333333333333     0.392521   
Cd4      Cd     0.333333333333     0.375000000000     0.333333333333     0.392521   
N1       N      0.378500000000     0.274100000000     0.753533333333    -0.105337   
N2       N      0.365466666667     0.289300000000     0.720600000000    -0.0752761  
N3       N      0.621500000000     0.399100000000     0.913133333333    -0.105313   
N4       N      0.634533333333     0.414300000000     0.946066666667    -0.0750663  
N5       N      0.621500000000     0.475900000000     0.913133333333    -0.105313   
N6       N      0.634533333333     0.460700000000     0.946066666667    -0.0750663  
N7       N      0.378500000000     0.350900000000     0.753533333333    -0.105337   
N8       N      0.365466666667     0.335700000000     0.720600000000    -0.0752762  
Cd1      Cd     0.618766666667     0.312500000000     0.908373333333     0.468402   
O1       O      0.545000000000     0.312500000000     0.874200000000    -0.276554   
O2       O      0.535200000000     0.312500000000     0.925566666667    -0.244598   
O3       O      0.371433333333     0.312500000000     0.920900000000    -0.243722   
O4       O      0.647866666667     0.312500000000     0.867166666667    -0.263528   
O5       O      0.634166666667     0.312500000000     0.967466666667    -0.249802   
C1       C      0.521333333333     0.312500000000     0.893033333333     0.312134   
C2       C      0.469266666667     0.312500000000     0.871500000000    -0.0381611  
C3       C      0.453133333333     0.312500000000     0.835066666667    -0.0288285  
H1       H      0.473833333333     0.312500000000     0.823666666667     0.0730669  
C4       C      0.404766666667     0.312500000000     0.814233333333     0.00347329 
C5       C      0.375466666667     0.312500000000     0.831000000000    -0.0360327  
H2       H      0.343766666667     0.312500000000     0.817833333333     0.0722872  
C6       C      0.393200000000     0.312500000000     0.869333333333    -0.0295421  
C7       C      0.438066666667     0.312500000000     0.889266666667    -0.0142645  
H3       H      0.448800000000     0.312500000000     0.914200000000     0.0717532  
C8       C      0.357033333333     0.312500000000     0.886333333333     0.269292   
C9       C      0.387966666667     0.312500000000     0.774200000000     0.124343   
Cd2      Cd     0.381233333333     0.437500000000     0.758293333333     0.468327   
O6       O      0.455000000000     0.437500000000     0.792466666667    -0.27656    
O7       O      0.464800000000     0.437500000000     0.741100000000    -0.244755   
O8       O      0.628566666667     0.437500000000     0.745766666667    -0.243916   
O9       O      0.352133333333     0.437500000000     0.799500000000    -0.263541   
O10      O      0.365833333333     0.437500000000     0.699200000000    -0.250285   
C10      C      0.478666666667     0.437500000000     0.773633333333     0.312168   
C11      C      0.530733333333     0.437500000000     0.795166666667    -0.0382393  
C12      C      0.546866666667     0.437500000000     0.831600000000    -0.0288021  
H4       H      0.526166666667     0.437500000000     0.843000000000     0.073066   
C13      C      0.595233333333     0.437500000000     0.852433333333     0.00344456 
C14      C      0.624533333333     0.437500000000     0.835666666667    -0.0360155  
H5       H      0.656233333333     0.437500000000     0.848833333333     0.0723023  
C15      C      0.606800000000     0.437500000000     0.797333333333    -0.0296257  
C16      C      0.561933333333     0.437500000000     0.777400000000    -0.0142169  
H6       H      0.551200000000     0.437500000000     0.752466666667     0.0716343  
C17      C      0.642966666667     0.437500000000     0.780333333333     0.269308   
C18      C      0.612033333333     0.437500000000     0.892466666667     0.124376   
Cd3      Cd     0.333333333333     0.250000000000     0.666666666667     0.392513   
Cd4      Cd     0.333333333333     0.375000000000     0.666666666667     0.392513   
N1       N      0.378500000000     0.524100000000     0.086866666667    -0.105342   
N2       N      0.365466666667     0.539300000000     0.053933333333    -0.0752984  
N3       N      0.621500000000     0.649100000000     0.246466666667    -0.105336   
N4       N      0.634533333333     0.664300000000     0.279400000000    -0.0752677  
N5       N      0.621500000000     0.725900000000     0.246466666667    -0.105336   
N6       N      0.634533333333     0.710700000000     0.279400000000    -0.0752677  
N7       N      0.378500000000     0.600900000000     0.086866666667    -0.105342   
N8       N      0.365466666667     0.585700000000     0.053933333333    -0.0752985  
Cd1      Cd     0.618766666667     0.562500000000     0.241706666667     0.468328   
O1       O      0.545000000000     0.562500000000     0.207533333333    -0.276573   
O2       O      0.535200000000     0.562500000000     0.258900000000    -0.244758   
O3       O      0.371433333333     0.562500000000     0.254233333333    -0.24389    
O4       O      0.647866666667     0.562500000000     0.200500000000    -0.263545   
O5       O      0.634166666667     0.562500000000     0.300800000000    -0.250281   
C1       C      0.521333333333     0.562500000000     0.226366666667     0.312179   
C2       C      0.469266666667     0.562500000000     0.204833333333    -0.0382457  
C3       C      0.453133333333     0.562500000000     0.168400000000    -0.0287744  
H1       H      0.473833333333     0.562500000000     0.157000000000     0.0730444  
C4       C      0.404766666667     0.562500000000     0.147566666667     0.00343313 
C5       C      0.375466666667     0.562500000000     0.164333333333    -0.0359796  
H2       H      0.343766666667     0.562500000000     0.151166666667     0.072263   
C6       C      0.393200000000     0.562500000000     0.202666666667    -0.0296258  
C7       C      0.438066666667     0.562500000000     0.222600000000    -0.014194   
H3       H      0.448800000000     0.562500000000     0.247533333333     0.0716383  
C8       C      0.357033333333     0.562500000000     0.219666666667     0.269331   
C9       C      0.387966666667     0.562500000000     0.107533333333     0.124346   
Cd2      Cd     0.381233333333     0.687500000000     0.091626666667     0.468323   
O6       O      0.455000000000     0.687500000000     0.125800000000    -0.276573   
O7       O      0.464800000000     0.687500000000     0.074433333333    -0.244834   
O8       O      0.628566666667     0.687500000000     0.079100000000    -0.243981   
O9       O      0.352133333333     0.687500000000     0.132833333333    -0.263552   
O10      O      0.365833333333     0.687500000000     0.032533333333    -0.25033    
C10      C      0.478666666667     0.687500000000     0.106966666667     0.312198   
C11      C      0.530733333333     0.687500000000     0.128500000000    -0.0382905  
C12      C      0.546866666667     0.687500000000     0.164933333333    -0.0287621  
H4       H      0.526166666667     0.687500000000     0.176333333333     0.0730429  
C13      C      0.595233333333     0.687500000000     0.185766666667     0.00341457 
C14      C      0.624533333333     0.687500000000     0.169000000000    -0.0359764  
H5       H      0.656233333333     0.687500000000     0.182166666667     0.0722741  
C15      C      0.606800000000     0.687500000000     0.130666666667    -0.0296749  
C16      C      0.561933333333     0.687500000000     0.110733333333    -0.014169   
H6       H      0.551200000000     0.687500000000     0.085800000000     0.0715661  
C17      C      0.642966666667     0.687500000000     0.113666666667     0.269331   
C18      C      0.612033333333     0.687500000000     0.225800000000     0.124362   
Cd3      Cd     0.333333333333     0.500000000000     0.000000000000     0.391937   
Cd4      Cd     0.333333333333     0.625000000000     0.000000000000     0.391936   
N1       N      0.378500000000     0.524100000000     0.420200000000    -0.105338   
N2       N      0.365466666667     0.539300000000     0.387266666667    -0.0752739  
N3       N      0.621500000000     0.649100000000     0.579800000000    -0.105337   
N4       N      0.634533333333     0.664300000000     0.612733333333    -0.0752703  
N5       N      0.621500000000     0.725900000000     0.579800000000    -0.105337   
N6       N      0.634533333333     0.710700000000     0.612733333333    -0.0752703  
N7       N      0.378500000000     0.600900000000     0.420200000000    -0.105338   
N8       N      0.365466666667     0.585700000000     0.387266666667    -0.0752739  
Cd1      Cd     0.618766666667     0.562500000000     0.575040000000     0.468323   
O1       O      0.545000000000     0.562500000000     0.540866666667    -0.276573   
O2       O      0.535200000000     0.562500000000     0.592233333333    -0.244764   
O3       O      0.371433333333     0.562500000000     0.587566666667    -0.243895   
O4       O      0.647866666667     0.562500000000     0.533833333333    -0.263543   
O5       O      0.634166666667     0.562500000000     0.634133333333    -0.250285   
C1       C      0.521333333333     0.562500000000     0.559700000000     0.312176   
C2       C      0.469266666667     0.562500000000     0.538166666667    -0.0382473  
C3       C      0.453133333333     0.562500000000     0.501733333333    -0.0287795  
H1       H      0.473833333333     0.562500000000     0.490333333333     0.0730499  
C4       C      0.404766666667     0.562500000000     0.480900000000     0.00343436 
C5       C      0.375466666667     0.562500000000     0.497666666667    -0.0359852  
H2       H      0.343766666667     0.562500000000     0.484500000000     0.0722711  
C6       C      0.393200000000     0.562500000000     0.536000000000    -0.0296267  
C7       C      0.438066666667     0.562500000000     0.555933333333    -0.0141979  
H3       H      0.448800000000     0.562500000000     0.580866666667     0.0716349  
C8       C      0.357033333333     0.562500000000     0.553000000000     0.269327   
C9       C      0.387966666667     0.562500000000     0.440866666667     0.124357   
Cd2      Cd     0.381233333333     0.687500000000     0.424960000000     0.468331   
O6       O      0.455000000000     0.687500000000     0.459133333333    -0.276565   
O7       O      0.464800000000     0.687500000000     0.407766666667    -0.24475    
O8       O      0.628566666667     0.687500000000     0.412433333333    -0.243912   
O9       O      0.352133333333     0.687500000000     0.466166666667    -0.263548   
O10      O      0.365833333333     0.687500000000     0.365866666667    -0.250282   
C10      C      0.478666666667     0.687500000000     0.440300000000     0.312173   
C11      C      0.530733333333     0.687500000000     0.461833333333    -0.0382434  
C12      C      0.546866666667     0.687500000000     0.498266666667    -0.0287905  
H4       H      0.526166666667     0.687500000000     0.509666666667     0.0730511  
C13      C      0.595233333333     0.687500000000     0.519100000000     0.00343456 
C14      C      0.624533333333     0.687500000000     0.502333333333    -0.036003   
H5       H      0.656233333333     0.687500000000     0.515500000000     0.0722814  
C15      C      0.606800000000     0.687500000000     0.464000000000    -0.0296311  
C16      C      0.561933333333     0.687500000000     0.444066666667    -0.014208   
H6       H      0.551200000000     0.687500000000     0.419133333333     0.0716357  
C17      C      0.642966666667     0.687500000000     0.447000000000     0.269314   
C18      C      0.612033333333     0.687500000000     0.559133333333     0.124353   
Cd3      Cd     0.333333333333     0.500000000000     0.333333333333     0.392521   
Cd4      Cd     0.333333333333     0.625000000000     0.333333333333     0.39252    
N1       N      0.378500000000     0.524100000000     0.753533333333    -0.105337   
N2       N      0.365466666667     0.539300000000     0.720600000000    -0.0752765  
N3       N      0.621500000000     0.649100000000     0.913133333333    -0.105313   
N4       N      0.634533333333     0.664300000000     0.946066666667    -0.0750667  
N5       N      0.621500000000     0.725900000000     0.913133333333    -0.105314   
N6       N      0.634533333333     0.710700000000     0.946066666667    -0.0750667  
N7       N      0.378500000000     0.600900000000     0.753533333333    -0.105337   
N8       N      0.365466666667     0.585700000000     0.720600000000    -0.0752766  
Cd1      Cd     0.618766666667     0.562500000000     0.908373333333     0.468401   
O1       O      0.545000000000     0.562500000000     0.874200000000    -0.276554   
O2       O      0.535200000000     0.562500000000     0.925566666667    -0.244599   
O3       O      0.371433333333     0.562500000000     0.920900000000    -0.243723   
O4       O      0.647866666667     0.562500000000     0.867166666667    -0.263529   
O5       O      0.634166666667     0.562500000000     0.967466666667    -0.249802   
C1       C      0.521333333333     0.562500000000     0.893033333333     0.312134   
C2       C      0.469266666667     0.562500000000     0.871500000000    -0.0381621  
C3       C      0.453133333333     0.562500000000     0.835066666667    -0.0288285  
H1       H      0.473833333333     0.562500000000     0.823666666667     0.0730663  
C4       C      0.404766666667     0.562500000000     0.814233333333     0.00347245 
C5       C      0.375466666667     0.562500000000     0.831000000000    -0.0360327  
H2       H      0.343766666667     0.562500000000     0.817833333333     0.0722866  
C6       C      0.393200000000     0.562500000000     0.869333333333    -0.029543   
C7       C      0.438066666667     0.562500000000     0.889266666667    -0.0142645  
H3       H      0.448800000000     0.562500000000     0.914200000000     0.0717526  
C8       C      0.357033333333     0.562500000000     0.886333333333     0.269292   
C9       C      0.387966666667     0.562500000000     0.774200000000     0.124342   
Cd2      Cd     0.381233333333     0.687500000000     0.758293333333     0.468326   
O6       O      0.455000000000     0.687500000000     0.792466666667    -0.276561   
O7       O      0.464800000000     0.687500000000     0.741100000000    -0.244756   
O8       O      0.628566666667     0.687500000000     0.745766666667    -0.243916   
O9       O      0.352133333333     0.687500000000     0.799500000000    -0.263541   
O10      O      0.365833333333     0.687500000000     0.699200000000    -0.250286   
C10      C      0.478666666667     0.687500000000     0.773633333333     0.312168   
C11      C      0.530733333333     0.687500000000     0.795166666667    -0.0382402  
C12      C      0.546866666667     0.687500000000     0.831600000000    -0.0288022  
H4       H      0.526166666667     0.687500000000     0.843000000000     0.0730653  
C13      C      0.595233333333     0.687500000000     0.852433333333     0.00344373 
C14      C      0.624533333333     0.687500000000     0.835666666667    -0.0360155  
H5       H      0.656233333333     0.687500000000     0.848833333333     0.0723017  
C15      C      0.606800000000     0.687500000000     0.797333333333    -0.0296266  
C16      C      0.561933333333     0.687500000000     0.777400000000    -0.0142169  
H6       H      0.551200000000     0.687500000000     0.752466666667     0.0716339  
C17      C      0.642966666667     0.687500000000     0.780333333333     0.269308   
C18      C      0.612033333333     0.687500000000     0.892466666667     0.124376   
Cd3      Cd     0.333333333333     0.500000000000     0.666666666667     0.392512   
Cd4      Cd     0.333333333333     0.625000000000     0.666666666667     0.392511   
N1       N      0.378500000000     0.774100000000     0.086866666667    -0.105342   
N2       N      0.365466666667     0.789300000000     0.053933333333    -0.0752984  
N3       N      0.621500000000     0.899100000000     0.246466666667    -0.105334   
N4       N      0.634533333333     0.914300000000     0.279400000000    -0.0752571  
N5       N      0.621500000000     0.975900000000     0.246466666667    -0.105285   
N6       N      0.634533333333     0.960700000000     0.279400000000    -0.0752181  
N7       N      0.378500000000     0.850900000000     0.086866666667    -0.105345   
N8       N      0.365466666667     0.835700000000     0.053933333333    -0.0752991  
Cd1      Cd     0.618766666667     0.812500000000     0.241706666667     0.468329   
O1       O      0.545000000000     0.812500000000     0.207533333333    -0.276573   
O2       O      0.535200000000     0.812500000000     0.258900000000    -0.244753   
O3       O      0.371433333333     0.812500000000     0.254233333333    -0.243885   
O4       O      0.647866666667     0.812500000000     0.200500000000    -0.263546   
O5       O      0.634166666667     0.812500000000     0.300800000000    -0.25028    
C1       C      0.521333333333     0.812500000000     0.226366666667     0.31218    
C2       C      0.469266666667     0.812500000000     0.204833333333    -0.0382422  
C3       C      0.453133333333     0.812500000000     0.168400000000    -0.0287739  
H1       H      0.473833333333     0.812500000000     0.157000000000     0.0730439  
C4       C      0.404766666667     0.812500000000     0.147566666667     0.00343324 
C5       C      0.375466666667     0.812500000000     0.164333333333    -0.0359791  
H2       H      0.343766666667     0.812500000000     0.151166666667     0.0722623  
C6       C      0.393200000000     0.812500000000     0.202666666667    -0.029623   
C7       C      0.438066666667     0.812500000000     0.222600000000    -0.0141925  
H3       H      0.448800000000     0.812500000000     0.247533333333     0.0716423  
C8       C      0.357033333333     0.812500000000     0.219666666667     0.269332   
C9       C      0.387966666667     0.812500000000     0.107533333333     0.124346   
Cd2      Cd     0.381233333333     0.937500000000     0.091626666667     0.468377   
O6       O      0.455000000000     0.937500000000     0.125800000000    -0.276544   
O7       O      0.464800000000     0.937500000000     0.074433333333    -0.244802   
O8       O      0.628566666667     0.937500000000     0.079100000000    -0.243947   
O9       O      0.352133333333     0.937500000000     0.132833333333    -0.263521   
O10      O      0.365833333333     0.937500000000     0.032533333333    -0.250272   
C10      C      0.478666666667     0.937500000000     0.106966666667     0.312196   
C11      C      0.530733333333     0.937500000000     0.128500000000    -0.0382552  
C12      C      0.546866666667     0.937500000000     0.164933333333    -0.0287719  
H4       H      0.526166666667     0.937500000000     0.176333333333     0.0730683  
C13      C      0.595233333333     0.937500000000     0.185766666667     0.00344992 
C14      C      0.624533333333     0.937500000000     0.169000000000    -0.0359868  
H5       H      0.656233333333     0.937500000000     0.182166666667     0.0723006  
C15      C      0.606800000000     0.937500000000     0.130666666667    -0.0296389  
C16      C      0.561933333333     0.937500000000     0.110733333333    -0.0141824  
H6       H      0.551200000000     0.937500000000     0.085800000000     0.0715894  
C17      C      0.642966666667     0.937500000000     0.113666666667     0.269331   
C18      C      0.612033333333     0.937500000000     0.225800000000     0.124374   
Cd3      Cd     0.333333333333     0.750000000000     0.000000000000     0.391936   
Cd4      Cd     0.333333333333     0.875000000000     0.000000000000     0.391955   
N1       N      0.378500000000     0.774100000000     0.420200000000    -0.105338   
N2       N      0.365466666667     0.789300000000     0.387266666667    -0.0752739  
N3       N      0.621500000000     0.899100000000     0.579800000000    -0.105334   
N4       N      0.634533333333     0.914300000000     0.612733333333    -0.0752597  
N5       N      0.621500000000     0.975900000000     0.579800000000    -0.105286   
N6       N      0.634533333333     0.960700000000     0.612733333333    -0.0752207  
N7       N      0.378500000000     0.850900000000     0.420200000000    -0.10534    
N8       N      0.365466666667     0.835700000000     0.387266666667    -0.0752746  
Cd1      Cd     0.618766666667     0.812500000000     0.575040000000     0.468324   
O1       O      0.545000000000     0.812500000000     0.540866666667    -0.276573   
O2       O      0.535200000000     0.812500000000     0.592233333333    -0.244759   
O3       O      0.371433333333     0.812500000000     0.587566666667    -0.24389    
O4       O      0.647866666667     0.812500000000     0.533833333333    -0.263544   
O5       O      0.634166666667     0.812500000000     0.634133333333    -0.250284   
C1       C      0.521333333333     0.812500000000     0.559700000000     0.312177   
C2       C      0.469266666667     0.812500000000     0.538166666667    -0.0382438  
C3       C      0.453133333333     0.812500000000     0.501733333333    -0.028779   
H1       H      0.473833333333     0.812500000000     0.490333333333     0.0730494  
C4       C      0.404766666667     0.812500000000     0.480900000000     0.00343447 
C5       C      0.375466666667     0.812500000000     0.497666666667    -0.0359848  
H2       H      0.343766666667     0.812500000000     0.484500000000     0.0722704  
C6       C      0.393200000000     0.812500000000     0.536000000000    -0.0296238  
C7       C      0.438066666667     0.812500000000     0.555933333333    -0.0141964  
H3       H      0.448800000000     0.812500000000     0.580866666667     0.0716389  
C8       C      0.357033333333     0.812500000000     0.553000000000     0.269329   
C9       C      0.387966666667     0.812500000000     0.440866666667     0.124356   
Cd2      Cd     0.381233333333     0.937500000000     0.424960000000     0.468385   
O6       O      0.455000000000     0.937500000000     0.459133333333    -0.276536   
O7       O      0.464800000000     0.937500000000     0.407766666667    -0.244718   
O8       O      0.628566666667     0.937500000000     0.412433333333    -0.243878   
O9       O      0.352133333333     0.937500000000     0.466166666667    -0.263517   
O10      O      0.365833333333     0.937500000000     0.365866666667    -0.250223   
C10      C      0.478666666667     0.937500000000     0.440300000000     0.312171   
C11      C      0.530733333333     0.937500000000     0.461833333333    -0.0382081  
C12      C      0.546866666667     0.937500000000     0.498266666667    -0.0288004  
H4       H      0.526166666667     0.937500000000     0.509666666667     0.0730765  
C13      C      0.595233333333     0.937500000000     0.519100000000     0.0034699  
C14      C      0.624533333333     0.937500000000     0.502333333333    -0.0360134  
H5       H      0.656233333333     0.937500000000     0.515500000000     0.0723078  
C15      C      0.606800000000     0.937500000000     0.464000000000    -0.029595   
C16      C      0.561933333333     0.937500000000     0.444066666667    -0.0142215  
H6       H      0.551200000000     0.937500000000     0.419133333333     0.0716589  
C17      C      0.642966666667     0.937500000000     0.447000000000     0.269314   
C18      C      0.612033333333     0.937500000000     0.559133333333     0.124364   
Cd3      Cd     0.333333333333     0.750000000000     0.333333333333     0.39252    
Cd4      Cd     0.333333333333     0.875000000000     0.333333333333     0.392539   
N1       N      0.378500000000     0.774100000000     0.753533333333    -0.105338   
N2       N      0.365466666667     0.789300000000     0.720600000000    -0.0752765  
N3       N      0.621500000000     0.899100000000     0.913133333333    -0.105311   
N4       N      0.634533333333     0.914300000000     0.946066666667    -0.0750561  
N5       N      0.621500000000     0.975900000000     0.913133333333    -0.105262   
N6       N      0.634533333333     0.960700000000     0.946066666667    -0.0750171  
N7       N      0.378500000000     0.850900000000     0.753533333333    -0.10534    
N8       N      0.365466666667     0.835700000000     0.720600000000    -0.0752772  
Cd1      Cd     0.618766666667     0.812500000000     0.908373333333     0.468403   
O1       O      0.545000000000     0.812500000000     0.874200000000    -0.276554   
O2       O      0.535200000000     0.812500000000     0.925566666667    -0.244593   
O3       O      0.371433333333     0.812500000000     0.920900000000    -0.243719   
O4       O      0.647866666667     0.812500000000     0.867166666667    -0.26353    
O5       O      0.634166666667     0.812500000000     0.967466666667    -0.249801   
C1       C      0.521333333333     0.812500000000     0.893033333333     0.312135   
C2       C      0.469266666667     0.812500000000     0.871500000000    -0.0381586  
C3       C      0.453133333333     0.812500000000     0.835066666667    -0.028828   
H1       H      0.473833333333     0.812500000000     0.823666666667     0.0730658  
C4       C      0.404766666667     0.812500000000     0.814233333333     0.00347256 
C5       C      0.375466666667     0.812500000000     0.831000000000    -0.0360323  
H2       H      0.343766666667     0.812500000000     0.817833333333     0.0722859  
C6       C      0.393200000000     0.812500000000     0.869333333333    -0.0295402  
C7       C      0.438066666667     0.812500000000     0.889266666667    -0.014263   
H3       H      0.448800000000     0.812500000000     0.914200000000     0.0717566  
C8       C      0.357033333333     0.812500000000     0.886333333333     0.269293   
C9       C      0.387966666667     0.812500000000     0.774200000000     0.124341   
Cd2      Cd     0.381233333333     0.937500000000     0.758293333333     0.46838    
O6       O      0.455000000000     0.937500000000     0.792466666667    -0.276532   
O7       O      0.464800000000     0.937500000000     0.741100000000    -0.244723   
O8       O      0.628566666667     0.937500000000     0.745766666667    -0.243883   
O9       O      0.352133333333     0.937500000000     0.799500000000    -0.263511   
O10      O      0.365833333333     0.937500000000     0.699200000000    -0.250228   
C10      C      0.478666666667     0.937500000000     0.773633333333     0.312165   
C11      C      0.530733333333     0.937500000000     0.795166666667    -0.0382049  
C12      C      0.546866666667     0.937500000000     0.831600000000    -0.028812   
H4       H      0.526166666667     0.937500000000     0.843000000000     0.0730906  
C13      C      0.595233333333     0.937500000000     0.852433333333     0.00347905 
C14      C      0.624533333333     0.937500000000     0.835666666667    -0.0360259  
H5       H      0.656233333333     0.937500000000     0.848833333333     0.0723281  
C15      C      0.606800000000     0.937500000000     0.797333333333    -0.0295906  
C16      C      0.561933333333     0.937500000000     0.777400000000    -0.0142304  
H6       H      0.551200000000     0.937500000000     0.752466666667     0.0716571  
C17      C      0.642966666667     0.937500000000     0.780333333333     0.269308   
C18      C      0.612033333333     0.937500000000     0.892466666667     0.124387   
Cd3      Cd     0.333333333333     0.750000000000     0.666666666667     0.392511   
Cd4      Cd     0.333333333333     0.875000000000     0.666666666667     0.39253    
N1       N      0.711833333333     0.024100000000     0.086866666667    -0.10538    
N2       N      0.698800000000     0.039300000000     0.053933333333    -0.0753005  
N3       N      0.954833333333     0.149100000000     0.246466666667    -0.104884   
N4       N      0.967866666667     0.164300000000     0.279400000000    -0.0735484  
N5       N      0.954833333333     0.225900000000     0.246466666667    -0.104886   
N6       N      0.967866666667     0.210700000000     0.279400000000    -0.0735488  
N7       N      0.711833333333     0.100900000000     0.086866666667    -0.105336   
N8       N      0.698800000000     0.085700000000     0.053933333333    -0.0752866  
Cd1      Cd     0.952100000000     0.062500000000     0.241706666667     0.470068   
O1       O      0.878333333333     0.062500000000     0.207533333333    -0.276608   
O2       O      0.868533333333     0.062500000000     0.258900000000    -0.244263   
O3       O      0.704766666667     0.062500000000     0.254233333333    -0.243827   
O4       O      0.981200000000     0.062500000000     0.200500000000    -0.258056   
O5       O      0.967500000000     0.062500000000     0.300800000000    -0.246523   
C1       C      0.854666666667     0.062500000000     0.226366666667     0.312049   
C2       C      0.802600000000     0.062500000000     0.204833333333    -0.0380838  
C3       C      0.786466666667     0.062500000000     0.168400000000    -0.0288985  
H1       H      0.807166666667     0.062500000000     0.157000000000     0.0731134  
C4       C      0.738100000000     0.062500000000     0.147566666667     0.00348    
C5       C      0.708800000000     0.062500000000     0.164333333333    -0.0360643  
H2       H      0.677100000000     0.062500000000     0.151166666667     0.0722604  
C6       C      0.726533333333     0.062500000000     0.202666666667    -0.0295484  
C7       C      0.771400000000     0.062500000000     0.222600000000    -0.0143127  
H3       H      0.782133333333     0.062500000000     0.247533333333     0.0718072  
C8       C      0.690366666667     0.062500000000     0.219666666667     0.269288   
C9       C      0.721300000000     0.062500000000     0.107533333333     0.124319   
Cd2      Cd     0.714566666667     0.187500000000     0.091626666667     0.468318   
O6       O      0.788333333333     0.187500000000     0.125800000000    -0.276581   
O7       O      0.798133333333     0.187500000000     0.074433333333    -0.24469    
O8       O      0.961900000000     0.187500000000     0.079100000000    -0.242727   
O9       O      0.685466666667     0.187500000000     0.132833333333    -0.263551   
O10      O      0.699166666667     0.187500000000     0.032533333333    -0.250299   
C10      C      0.812000000000     0.187500000000     0.106966666667     0.312336   
C11      C      0.864066666667     0.187500000000     0.128500000000    -0.038564   
C12      C      0.880200000000     0.187500000000     0.164933333333    -0.0284136  
H4       H      0.859500000000     0.187500000000     0.176333333333     0.0729502  
C13      C      0.928566666667     0.187500000000     0.185766666667     0.00331134 
C14      C      0.957866666667     0.187500000000     0.169000000000    -0.0348899  
H5       H      0.989566666667     0.187500000000     0.182166666667     0.0739087  
C15      C      0.940133333333     0.187500000000     0.130666666667    -0.0307402  
C16      C      0.895266666667     0.187500000000     0.110733333333    -0.0130513  
H6       H      0.884533333333     0.187500000000     0.085800000000     0.0715031  
C17      C      0.976300000000     0.187500000000     0.113666666667     0.276236   
C18      C      0.945366666667     0.187500000000     0.225800000000     0.125057   
Cd3      Cd     0.666666666667     0.000000000000     0.000000000000     0.391844   
Cd4      Cd     0.666666666667     0.125000000000     0.000000000000     0.391975   
N1       N      0.711833333333     0.024100000000     0.420200000000    -0.105376   
N2       N      0.698800000000     0.039300000000     0.387266666667    -0.0752759  
N3       N      0.954833333333     0.149100000000     0.579800000000    -0.104884   
N4       N      0.967866666667     0.164300000000     0.612733333333    -0.0735519  
N5       N      0.954833333333     0.225900000000     0.579800000000    -0.104886   
N6       N      0.967866666667     0.210700000000     0.612733333333    -0.0735522  
N7       N      0.711833333333     0.100900000000     0.420200000000    -0.105332   
N8       N      0.698800000000     0.085700000000     0.387266666667    -0.075262   
Cd1      Cd     0.952100000000     0.062500000000     0.575040000000     0.470063   
O1       O      0.878333333333     0.062500000000     0.540866666667    -0.276607   
O2       O      0.868533333333     0.062500000000     0.592233333333    -0.24427    
O3       O      0.704766666667     0.062500000000     0.587566666667    -0.243833   
O4       O      0.981200000000     0.062500000000     0.533833333333    -0.25805    
O5       O      0.967500000000     0.062500000000     0.634133333333    -0.246529   
C1       C      0.854666666667     0.062500000000     0.559700000000     0.312046   
C2       C      0.802600000000     0.062500000000     0.538166666667    -0.0380855  
C3       C      0.786466666667     0.062500000000     0.501733333333    -0.0289036  
H1       H      0.807166666667     0.062500000000     0.490333333333     0.073119   
C4       C      0.738100000000     0.062500000000     0.480900000000     0.00348123 
C5       C      0.708800000000     0.062500000000     0.497666666667    -0.03607    
H2       H      0.677100000000     0.062500000000     0.484500000000     0.0722686  
C6       C      0.726533333333     0.062500000000     0.536000000000    -0.0295493  
C7       C      0.771400000000     0.062500000000     0.555933333333    -0.0143165  
H3       H      0.782133333333     0.062500000000     0.580866666667     0.0718037  
C8       C      0.690366666667     0.062500000000     0.553000000000     0.269285   
C9       C      0.721300000000     0.062500000000     0.440866666667     0.12433    
Cd2      Cd     0.714566666667     0.187500000000     0.424960000000     0.468326   
O6       O      0.788333333333     0.187500000000     0.459133333333    -0.276572   
O7       O      0.798133333333     0.187500000000     0.407766666667    -0.244606   
O8       O      0.961900000000     0.187500000000     0.412433333333    -0.242654   
O9       O      0.685466666667     0.187500000000     0.466166666667    -0.263547   
O10      O      0.699166666667     0.187500000000     0.365866666667    -0.250251   
C10      C      0.812000000000     0.187500000000     0.440300000000     0.312312   
C11      C      0.864066666667     0.187500000000     0.461833333333    -0.0385178  
C12      C      0.880200000000     0.187500000000     0.498266666667    -0.028441   
H4       H      0.859500000000     0.187500000000     0.509666666667     0.072958   
C13      C      0.928566666667     0.187500000000     0.519100000000     0.00333038 
C14      C      0.957866666667     0.187500000000     0.502333333333    -0.0349141  
H5       H      0.989566666667     0.187500000000     0.515500000000     0.0739165  
C15      C      0.940133333333     0.187500000000     0.464000000000    -0.0306987  
C16      C      0.895266666667     0.187500000000     0.444066666667    -0.013088   
H6       H      0.884533333333     0.187500000000     0.419133333333     0.0715724  
C17      C      0.976300000000     0.187500000000     0.447000000000     0.27623    
C18      C      0.945366666667     0.187500000000     0.559133333333     0.125048   
Cd3      Cd     0.666666666667     0.000000000000     0.333333333333     0.392429   
Cd4      Cd     0.666666666667     0.125000000000     0.333333333333     0.39256    
N1       N      0.711833333333     0.024100000000     0.753533333333    -0.105376   
N2       N      0.698800000000     0.039300000000     0.720600000000    -0.0752786  
N3       N      0.954833333333     0.149100000000     0.913133333333    -0.104863   
N4       N      0.967866666667     0.164300000000     0.946066666667    -0.0733578  
N5       N      0.954833333333     0.225900000000     0.913133333333    -0.104865   
N6       N      0.967866666667     0.210700000000     0.946066666667    -0.0733582  
N7       N      0.711833333333     0.100900000000     0.753533333333    -0.105331   
N8       N      0.698800000000     0.085700000000     0.720600000000    -0.0752646  
Cd1      Cd     0.952100000000     0.062500000000     0.908373333333     0.470134   
O1       O      0.878333333333     0.062500000000     0.874200000000    -0.276589   
O2       O      0.868533333333     0.062500000000     0.925566666667    -0.244109   
O3       O      0.704766666667     0.062500000000     0.920900000000    -0.243664   
O4       O      0.981200000000     0.062500000000     0.867166666667    -0.258053   
O5       O      0.967500000000     0.062500000000     0.967466666667    -0.246068   
C1       C      0.854666666667     0.062500000000     0.893033333333     0.312005   
C2       C      0.802600000000     0.062500000000     0.871500000000    -0.0380024  
C3       C      0.786466666667     0.062500000000     0.835066666667    -0.0289513  
H1       H      0.807166666667     0.062500000000     0.823666666667     0.0731349  
C4       C      0.738100000000     0.062500000000     0.814233333333     0.00351844 
C5       C      0.708800000000     0.062500000000     0.831000000000    -0.0361164  
H2       H      0.677100000000     0.062500000000     0.817833333333     0.0722837  
C6       C      0.726533333333     0.062500000000     0.869333333333    -0.0294673  
C7       C      0.771400000000     0.062500000000     0.889266666667    -0.0143816  
H3       H      0.782133333333     0.062500000000     0.914200000000     0.0719188  
C8       C      0.690366666667     0.062500000000     0.886333333333     0.26925    
C9       C      0.721300000000     0.062500000000     0.774200000000     0.124315   
Cd2      Cd     0.714566666667     0.187500000000     0.758293333333     0.468322   
O6       O      0.788333333333     0.187500000000     0.792466666667    -0.276569   
O7       O      0.798133333333     0.187500000000     0.741100000000    -0.244611   
O8       O      0.961900000000     0.187500000000     0.745766666667    -0.24266    
O9       O      0.685466666667     0.187500000000     0.799500000000    -0.26354    
O10      O      0.699166666667     0.187500000000     0.699200000000    -0.250255   
C10      C      0.812000000000     0.187500000000     0.773633333333     0.312306   
C11      C      0.864066666667     0.187500000000     0.795166666667    -0.0385142  
C12      C      0.880200000000     0.187500000000     0.831600000000    -0.0284528  
H4       H      0.859500000000     0.187500000000     0.843000000000     0.072972   
C13      C      0.928566666667     0.187500000000     0.852433333333     0.00333901 
C14      C      0.957866666667     0.187500000000     0.835666666667    -0.0349282  
H5       H      0.989566666667     0.187500000000     0.848833333333     0.0739313  
C15      C      0.940133333333     0.187500000000     0.797333333333    -0.0306925  
C16      C      0.895266666667     0.187500000000     0.777400000000    -0.0130988  
H6       H      0.884533333333     0.187500000000     0.752466666667     0.0715709  
C17      C      0.976300000000     0.187500000000     0.780333333333     0.27621    
C18      C      0.945366666667     0.187500000000     0.892466666667     0.125068   
Cd3      Cd     0.666666666667     0.000000000000     0.666666666667     0.392421   
Cd4      Cd     0.666666666667     0.125000000000     0.666666666667     0.392552   
N1       N      0.711833333333     0.274100000000     0.086866666667    -0.105334   
N2       N      0.698800000000     0.289300000000     0.053933333333    -0.0752824  
N3       N      0.954833333333     0.399100000000     0.246466666667    -0.104886   
N4       N      0.967866666667     0.414300000000     0.279400000000    -0.0735488  
N5       N      0.954833333333     0.475900000000     0.246466666667    -0.104886   
N6       N      0.967866666667     0.460700000000     0.279400000000    -0.0735489  
N7       N      0.711833333333     0.350900000000     0.086866666667    -0.105334   
N8       N      0.698800000000     0.335700000000     0.053933333333    -0.0752825  
Cd1      Cd     0.952100000000     0.312500000000     0.241706666667     0.470115   
O1       O      0.878333333333     0.312500000000     0.207533333333    -0.276581   
O2       O      0.868533333333     0.312500000000     0.258900000000    -0.244238   
O3       O      0.704766666667     0.312500000000     0.254233333333    -0.243804   
O4       O      0.981200000000     0.312500000000     0.200500000000    -0.258027   
O5       O      0.967500000000     0.312500000000     0.300800000000    -0.246509   
C1       C      0.854666666667     0.312500000000     0.226366666667     0.312048   
C2       C      0.802600000000     0.312500000000     0.204833333333    -0.0380526  
C3       C      0.786466666667     0.312500000000     0.168400000000    -0.028906   
H1       H      0.807166666667     0.312500000000     0.157000000000     0.0731368  
C4       C      0.738100000000     0.312500000000     0.147566666667     0.0035123  
C5       C      0.708800000000     0.312500000000     0.164333333333    -0.0360723  
H2       H      0.677100000000     0.312500000000     0.151166666667     0.0722845  
C6       C      0.726533333333     0.312500000000     0.202666666667    -0.0295167  
C7       C      0.771400000000     0.312500000000     0.222600000000    -0.0143232  
H3       H      0.782133333333     0.312500000000     0.247533333333     0.0718264  
C8       C      0.690366666667     0.312500000000     0.219666666667     0.269291   
C9       C      0.721300000000     0.312500000000     0.107533333333     0.124329   
Cd2      Cd     0.714566666667     0.437500000000     0.091626666667     0.468319   
O6       O      0.788333333333     0.437500000000     0.125800000000    -0.276581   
O7       O      0.798133333333     0.437500000000     0.074433333333    -0.244686   
O8       O      0.961900000000     0.437500000000     0.079100000000    -0.242724   
O9       O      0.685466666667     0.437500000000     0.132833333333    -0.263551   
O10      O      0.699166666667     0.437500000000     0.032533333333    -0.250298   
C10      C      0.812000000000     0.437500000000     0.106966666667     0.312338   
C11      C      0.864066666667     0.437500000000     0.128500000000    -0.0385613  
C12      C      0.880200000000     0.437500000000     0.164933333333    -0.0284128  
H4       H      0.859500000000     0.437500000000     0.176333333333     0.0729496  
C13      C      0.928566666667     0.437500000000     0.185766666667     0.00331118 
C14      C      0.957866666667     0.437500000000     0.169000000000    -0.0348892  
H5       H      0.989566666667     0.437500000000     0.182166666667     0.0739079  
C15      C      0.940133333333     0.437500000000     0.130666666667    -0.0307381  
C16      C      0.895266666667     0.437500000000     0.110733333333    -0.0130495  
H6       H      0.884533333333     0.437500000000     0.085800000000     0.071506   
C17      C      0.976300000000     0.437500000000     0.113666666667     0.276237   
C18      C      0.945366666667     0.437500000000     0.225800000000     0.125056   
Cd3      Cd     0.666666666667     0.250000000000     0.000000000000     0.391981   
Cd4      Cd     0.666666666667     0.375000000000     0.000000000000     0.391981   
N1       N      0.711833333333     0.274100000000     0.420200000000    -0.10533    
N2       N      0.698800000000     0.289300000000     0.387266666667    -0.0752579  
N3       N      0.954833333333     0.399100000000     0.579800000000    -0.104886   
N4       N      0.967866666667     0.414300000000     0.612733333333    -0.0735523  
N5       N      0.954833333333     0.475900000000     0.579800000000    -0.104886   
N6       N      0.967866666667     0.460700000000     0.612733333333    -0.0735523  
N7       N      0.711833333333     0.350900000000     0.420200000000    -0.10533    
N8       N      0.698800000000     0.335700000000     0.387266666667    -0.0752579  
Cd1      Cd     0.952100000000     0.312500000000     0.575040000000     0.470109   
O1       O      0.878333333333     0.312500000000     0.540866666667    -0.27658    
O2       O      0.868533333333     0.312500000000     0.592233333333    -0.244244   
O3       O      0.704766666667     0.312500000000     0.587566666667    -0.243809   
O4       O      0.981200000000     0.312500000000     0.533833333333    -0.258021   
O5       O      0.967500000000     0.312500000000     0.634133333333    -0.246516   
C1       C      0.854666666667     0.312500000000     0.559700000000     0.312045   
C2       C      0.802600000000     0.312500000000     0.538166666667    -0.0380543  
C3       C      0.786466666667     0.312500000000     0.501733333333    -0.0289111  
H1       H      0.807166666667     0.312500000000     0.490333333333     0.0731423  
C4       C      0.738100000000     0.312500000000     0.480900000000     0.00351353 
C5       C      0.708800000000     0.312500000000     0.497666666667    -0.036078   
H2       H      0.677100000000     0.312500000000     0.484500000000     0.0722927  
C6       C      0.726533333333     0.312500000000     0.536000000000    -0.0295176  
C7       C      0.771400000000     0.312500000000     0.555933333333    -0.0143271  
H3       H      0.782133333333     0.312500000000     0.580866666667     0.0718229  
C8       C      0.690366666667     0.312500000000     0.553000000000     0.269287   
C9       C      0.721300000000     0.312500000000     0.440866666667     0.12434    
Cd2      Cd     0.714566666667     0.437500000000     0.424960000000     0.468327   
O6       O      0.788333333333     0.437500000000     0.459133333333    -0.276572   
O7       O      0.798133333333     0.437500000000     0.407766666667    -0.244602   
O8       O      0.961900000000     0.437500000000     0.412433333333    -0.242651   
O9       O      0.685466666667     0.437500000000     0.466166666667    -0.263547   
O10      O      0.699166666667     0.437500000000     0.365866666667    -0.25025    
C10      C      0.812000000000     0.437500000000     0.440300000000     0.312313   
C11      C      0.864066666667     0.437500000000     0.461833333333    -0.0385151  
C12      C      0.880200000000     0.437500000000     0.498266666667    -0.0284401  
H4       H      0.859500000000     0.437500000000     0.509666666667     0.0729574  
C13      C      0.928566666667     0.437500000000     0.519100000000     0.00333022 
C14      C      0.957866666667     0.437500000000     0.502333333333    -0.0349133  
H5       H      0.989566666667     0.437500000000     0.515500000000     0.0739157  
C15      C      0.940133333333     0.437500000000     0.464000000000    -0.0306967  
C16      C      0.895266666667     0.437500000000     0.444066666667    -0.0130863  
H6       H      0.884533333333     0.437500000000     0.419133333333     0.0715753  
C17      C      0.976300000000     0.437500000000     0.447000000000     0.276231   
C18      C      0.945366666667     0.437500000000     0.559133333333     0.125047   
Cd3      Cd     0.666666666667     0.250000000000     0.333333333333     0.392566   
Cd4      Cd     0.666666666667     0.375000000000     0.333333333333     0.392566   
N1       N      0.711833333333     0.274100000000     0.753533333333    -0.105329   
N2       N      0.698800000000     0.289300000000     0.720600000000    -0.0752605  
N3       N      0.954833333333     0.399100000000     0.913133333333    -0.104865   
N4       N      0.967866666667     0.414300000000     0.946066666667    -0.0733582  
N5       N      0.954833333333     0.475900000000     0.913133333333    -0.104865   
N6       N      0.967866666667     0.460700000000     0.946066666667    -0.0733582  
N7       N      0.711833333333     0.350900000000     0.753533333333    -0.10533    
N8       N      0.698800000000     0.335700000000     0.720600000000    -0.0752605  
Cd1      Cd     0.952100000000     0.312500000000     0.908373333333     0.47018    
O1       O      0.878333333333     0.312500000000     0.874200000000    -0.276562   
O2       O      0.868533333333     0.312500000000     0.925566666667    -0.244084   
O3       O      0.704766666667     0.312500000000     0.920900000000    -0.24364    
O4       O      0.981200000000     0.312500000000     0.867166666667    -0.258024   
O5       O      0.967500000000     0.312500000000     0.967466666667    -0.246055   
C1       C      0.854666666667     0.312500000000     0.893033333333     0.312004   
C2       C      0.802600000000     0.312500000000     0.871500000000    -0.0379712  
C3       C      0.786466666667     0.312500000000     0.835066666667    -0.0289589  
H1       H      0.807166666667     0.312500000000     0.823666666667     0.0731582  
C4       C      0.738100000000     0.312500000000     0.814233333333     0.00355074 
C5       C      0.708800000000     0.312500000000     0.831000000000    -0.0361244  
H2       H      0.677100000000     0.312500000000     0.817833333333     0.0723078  
C6       C      0.726533333333     0.312500000000     0.869333333333    -0.0294357  
C7       C      0.771400000000     0.312500000000     0.889266666667    -0.0143921  
H3       H      0.782133333333     0.312500000000     0.914200000000     0.0719379  
C8       C      0.690366666667     0.312500000000     0.886333333333     0.269252   
C9       C      0.721300000000     0.312500000000     0.774200000000     0.124325   
Cd2      Cd     0.714566666667     0.437500000000     0.758293333333     0.468322   
O6       O      0.788333333333     0.437500000000     0.792466666667    -0.276569   
O7       O      0.798133333333     0.437500000000     0.741100000000    -0.244607   
O8       O      0.961900000000     0.437500000000     0.745766666667    -0.242657   
O9       O      0.685466666667     0.437500000000     0.799500000000    -0.263541   
O10      O      0.699166666667     0.437500000000     0.699200000000    -0.250254   
C10      C      0.812000000000     0.437500000000     0.773633333333     0.312308   
C11      C      0.864066666667     0.437500000000     0.795166666667    -0.0385116  
C12      C      0.880200000000     0.437500000000     0.831600000000    -0.0284519  
H4       H      0.859500000000     0.437500000000     0.843000000000     0.0729714  
C13      C      0.928566666667     0.437500000000     0.852433333333     0.00333884 
C14      C      0.957866666667     0.437500000000     0.835666666667    -0.0349274  
H5       H      0.989566666667     0.437500000000     0.848833333333     0.0739305  
C15      C      0.940133333333     0.437500000000     0.797333333333    -0.0306905  
C16      C      0.895266666667     0.437500000000     0.777400000000    -0.0130971  
H6       H      0.884533333333     0.437500000000     0.752466666667     0.0715738  
C17      C      0.976300000000     0.437500000000     0.780333333333     0.276211   
C18      C      0.945366666667     0.437500000000     0.892466666667     0.125068   
Cd3      Cd     0.666666666667     0.250000000000     0.666666666667     0.392557   
Cd4      Cd     0.666666666667     0.375000000000     0.666666666667     0.392557   
N1       N      0.711833333333     0.524100000000     0.086866666667    -0.105335   
N2       N      0.698800000000     0.539300000000     0.053933333333    -0.0752828  
N3       N      0.954833333333     0.649100000000     0.246466666667    -0.104886   
N4       N      0.967866666667     0.664300000000     0.279400000000    -0.0735493  
N5       N      0.954833333333     0.725900000000     0.246466666667    -0.104886   
N6       N      0.967866666667     0.710700000000     0.279400000000    -0.0735493  
N7       N      0.711833333333     0.600900000000     0.086866666667    -0.105335   
N8       N      0.698800000000     0.585700000000     0.053933333333    -0.0752829  
Cd1      Cd     0.952100000000     0.562500000000     0.241706666667     0.470113   
O1       O      0.878333333333     0.562500000000     0.207533333333    -0.276581   
O2       O      0.868533333333     0.562500000000     0.258900000000    -0.244239   
O3       O      0.704766666667     0.562500000000     0.254233333333    -0.243804   
O4       O      0.981200000000     0.562500000000     0.200500000000    -0.258028   
O5       O      0.967500000000     0.562500000000     0.300800000000    -0.24651    
C1       C      0.854666666667     0.562500000000     0.226366666667     0.312048   
C2       C      0.802600000000     0.562500000000     0.204833333333    -0.0380536  
C3       C      0.786466666667     0.562500000000     0.168400000000    -0.0289061  
H1       H      0.807166666667     0.562500000000     0.157000000000     0.0731361  
C4       C      0.738100000000     0.562500000000     0.147566666667     0.00351146 
C5       C      0.708800000000     0.562500000000     0.164333333333    -0.0360723  
H2       H      0.677100000000     0.562500000000     0.151166666667     0.0722839  
C6       C      0.726533333333     0.562500000000     0.202666666667    -0.0295177  
C7       C      0.771400000000     0.562500000000     0.222600000000    -0.0143232  
H3       H      0.782133333333     0.562500000000     0.247533333333     0.0718259  
C8       C      0.690366666667     0.562500000000     0.219666666667     0.26929    
C9       C      0.721300000000     0.562500000000     0.107533333333     0.124328   
Cd2      Cd     0.714566666667     0.687500000000     0.091626666667     0.468318   
O6       O      0.788333333333     0.687500000000     0.125800000000    -0.276581   
O7       O      0.798133333333     0.687500000000     0.074433333333    -0.244686   
O8       O      0.961900000000     0.687500000000     0.079100000000    -0.242725   
O9       O      0.685466666667     0.687500000000     0.132833333333    -0.263552   
O10      O      0.699166666667     0.687500000000     0.032533333333    -0.250299   
C10      C      0.812000000000     0.687500000000     0.106966666667     0.312337   
C11      C      0.864066666667     0.687500000000     0.128500000000    -0.0385623  
C12      C      0.880200000000     0.687500000000     0.164933333333    -0.0284128  
H4       H      0.859500000000     0.687500000000     0.176333333333     0.0729489  
C13      C      0.928566666667     0.687500000000     0.185766666667     0.00331035 
C14      C      0.957866666667     0.687500000000     0.169000000000    -0.0348892  
H5       H      0.989566666667     0.687500000000     0.182166666667     0.0739071  
C15      C      0.940133333333     0.687500000000     0.130666666667    -0.030739   
C16      C      0.895266666667     0.687500000000     0.110733333333    -0.0130495  
H6       H      0.884533333333     0.687500000000     0.085800000000     0.0715055  
C17      C      0.976300000000     0.687500000000     0.113666666667     0.276237   
C18      C      0.945366666667     0.687500000000     0.225800000000     0.125056   
Cd3      Cd     0.666666666667     0.500000000000     0.000000000000     0.39198    
Cd4      Cd     0.666666666667     0.625000000000     0.000000000000     0.39198    
N1       N      0.711833333333     0.524100000000     0.420200000000    -0.10533    
N2       N      0.698800000000     0.539300000000     0.387266666667    -0.0752583  
N3       N      0.954833333333     0.649100000000     0.579800000000    -0.104887   
N4       N      0.967866666667     0.664300000000     0.612733333333    -0.0735527  
N5       N      0.954833333333     0.725900000000     0.579800000000    -0.104887   
N6       N      0.967866666667     0.710700000000     0.612733333333    -0.0735528  
N7       N      0.711833333333     0.600900000000     0.420200000000    -0.10533    
N8       N      0.698800000000     0.585700000000     0.387266666667    -0.0752583  
Cd1      Cd     0.952100000000     0.562500000000     0.575040000000     0.470108   
O1       O      0.878333333333     0.562500000000     0.540866666667    -0.276581   
O2       O      0.868533333333     0.562500000000     0.592233333333    -0.244245   
O3       O      0.704766666667     0.562500000000     0.587566666667    -0.24381    
O4       O      0.981200000000     0.562500000000     0.533833333333    -0.258022   
O5       O      0.967500000000     0.562500000000     0.634133333333    -0.246516   
C1       C      0.854666666667     0.562500000000     0.559700000000     0.312045   
C2       C      0.802600000000     0.562500000000     0.538166666667    -0.0380553  
C3       C      0.786466666667     0.562500000000     0.501733333333    -0.0289112  
H1       H      0.807166666667     0.562500000000     0.490333333333     0.0731417  
C4       C      0.738100000000     0.562500000000     0.480900000000     0.00351269 
C5       C      0.708800000000     0.562500000000     0.497666666667    -0.036078   
H2       H      0.677100000000     0.562500000000     0.484500000000     0.0722921  
C6       C      0.726533333333     0.562500000000     0.536000000000    -0.0295186  
C7       C      0.771400000000     0.562500000000     0.555933333333    -0.014327   
H3       H      0.782133333333     0.562500000000     0.580866666667     0.0718223  
C8       C      0.690366666667     0.562500000000     0.553000000000     0.269287   
C9       C      0.721300000000     0.562500000000     0.440866666667     0.124339   
Cd2      Cd     0.714566666667     0.687500000000     0.424960000000     0.468326   
O6       O      0.788333333333     0.687500000000     0.459133333333    -0.276573   
O7       O      0.798133333333     0.687500000000     0.407766666667    -0.244602   
O8       O      0.961900000000     0.687500000000     0.412433333333    -0.242652   
O9       O      0.685466666667     0.687500000000     0.466166666667    -0.263548   
O10      O      0.699166666667     0.687500000000     0.365866666667    -0.250251   
C10      C      0.812000000000     0.687500000000     0.440300000000     0.312313   
C11      C      0.864066666667     0.687500000000     0.461833333333    -0.038516   
C12      C      0.880200000000     0.687500000000     0.498266666667    -0.0284402  
H4       H      0.859500000000     0.687500000000     0.509666666667     0.0729567  
C13      C      0.928566666667     0.687500000000     0.519100000000     0.0033294  
C14      C      0.957866666667     0.687500000000     0.502333333333    -0.0349134  
H5       H      0.989566666667     0.687500000000     0.515500000000     0.073915   
C15      C      0.940133333333     0.687500000000     0.464000000000    -0.0306976  
C16      C      0.895266666667     0.687500000000     0.444066666667    -0.0130863  
H6       H      0.884533333333     0.687500000000     0.419133333333     0.0715749  
C17      C      0.976300000000     0.687500000000     0.447000000000     0.276231   
C18      C      0.945366666667     0.687500000000     0.559133333333     0.125046   
Cd3      Cd     0.666666666667     0.500000000000     0.333333333333     0.392566   
Cd4      Cd     0.666666666667     0.625000000000     0.333333333333     0.392565   
N1       N      0.711833333333     0.524100000000     0.753533333333    -0.10533    
N2       N      0.698800000000     0.539300000000     0.720600000000    -0.0752609  
N3       N      0.954833333333     0.649100000000     0.913133333333    -0.104865   
N4       N      0.967866666667     0.664300000000     0.946066666667    -0.0733586  
N5       N      0.954833333333     0.725900000000     0.913133333333    -0.104866   
N6       N      0.967866666667     0.710700000000     0.946066666667    -0.0733587  
N7       N      0.711833333333     0.600900000000     0.753533333333    -0.10533    
N8       N      0.698800000000     0.585700000000     0.720600000000    -0.075261   
Cd1      Cd     0.952100000000     0.562500000000     0.908373333333     0.470179   
O1       O      0.878333333333     0.562500000000     0.874200000000    -0.276563   
O2       O      0.868533333333     0.562500000000     0.925566666667    -0.244084   
O3       O      0.704766666667     0.562500000000     0.920900000000    -0.243641   
O4       O      0.981200000000     0.562500000000     0.867166666667    -0.258025   
O5       O      0.967500000000     0.562500000000     0.967466666667    -0.246055   
C1       C      0.854666666667     0.562500000000     0.893033333333     0.312004   
C2       C      0.802600000000     0.562500000000     0.871500000000    -0.0379722  
C3       C      0.786466666667     0.562500000000     0.835066666667    -0.0289589  
H1       H      0.807166666667     0.562500000000     0.823666666667     0.0731576  
C4       C      0.738100000000     0.562500000000     0.814233333333     0.0035499  
C5       C      0.708800000000     0.562500000000     0.831000000000    -0.0361244  
H2       H      0.677100000000     0.562500000000     0.817833333333     0.0723072  
C6       C      0.726533333333     0.562500000000     0.869333333333    -0.0294367  
C7       C      0.771400000000     0.562500000000     0.889266666667    -0.0143921  
H3       H      0.782133333333     0.562500000000     0.914200000000     0.0719374  
C8       C      0.690366666667     0.562500000000     0.886333333333     0.269252   
C9       C      0.721300000000     0.562500000000     0.774200000000     0.124325   
Cd2      Cd     0.714566666667     0.687500000000     0.758293333333     0.468321   
O6       O      0.788333333333     0.687500000000     0.792466666667    -0.27657    
O7       O      0.798133333333     0.687500000000     0.741100000000    -0.244608   
O8       O      0.961900000000     0.687500000000     0.745766666667    -0.242657   
O9       O      0.685466666667     0.687500000000     0.799500000000    -0.263542   
O10      O      0.699166666667     0.687500000000     0.699200000000    -0.250255   
C10      C      0.812000000000     0.687500000000     0.773633333333     0.312308   
C11      C      0.864066666667     0.687500000000     0.795166666667    -0.0385125  
C12      C      0.880200000000     0.687500000000     0.831600000000    -0.028452   
H4       H      0.859500000000     0.687500000000     0.843000000000     0.0729708  
C13      C      0.928566666667     0.687500000000     0.852433333333     0.00333802 
C14      C      0.957866666667     0.687500000000     0.835666666667    -0.0349275  
H5       H      0.989566666667     0.687500000000     0.848833333333     0.0739298  
C15      C      0.940133333333     0.687500000000     0.797333333333    -0.0306913  
C16      C      0.895266666667     0.687500000000     0.777400000000    -0.0130971  
H6       H      0.884533333333     0.687500000000     0.752466666667     0.0715734  
C17      C      0.976300000000     0.687500000000     0.780333333333     0.276211   
C18      C      0.945366666667     0.687500000000     0.892466666667     0.125067   
Cd3      Cd     0.666666666667     0.500000000000     0.666666666667     0.392557   
Cd4      Cd     0.666666666667     0.625000000000     0.666666666667     0.392556   
N1       N      0.711833333333     0.774100000000     0.086866666667    -0.105335   
N2       N      0.698800000000     0.789300000000     0.053933333333    -0.0752829  
N3       N      0.954833333333     0.899100000000     0.246466666667    -0.104884   
N4       N      0.967866666667     0.914300000000     0.279400000000    -0.0735389  
N5       N      0.954833333333     0.975900000000     0.246466666667    -0.104835   
N6       N      0.967866666667     0.960700000000     0.279400000000    -0.0735     
N7       N      0.711833333333     0.850900000000     0.086866666667    -0.105337   
N8       N      0.698800000000     0.835700000000     0.053933333333    -0.0752835  
Cd1      Cd     0.952100000000     0.812500000000     0.241706666667     0.470115   
O1       O      0.878333333333     0.812500000000     0.207533333333    -0.276581   
O2       O      0.868533333333     0.812500000000     0.258900000000    -0.244234   
O3       O      0.704766666667     0.812500000000     0.254233333333    -0.2438     
O4       O      0.981200000000     0.812500000000     0.200500000000    -0.258029   
O5       O      0.967500000000     0.812500000000     0.300800000000    -0.246509   
C1       C      0.854666666667     0.812500000000     0.226366666667     0.312049   
C2       C      0.802600000000     0.812500000000     0.204833333333    -0.0380501  
C3       C      0.786466666667     0.812500000000     0.168400000000    -0.0289055  
H1       H      0.807166666667     0.812500000000     0.157000000000     0.0731357  
C4       C      0.738100000000     0.812500000000     0.147566666667     0.00351156 
C5       C      0.708800000000     0.812500000000     0.164333333333    -0.0360719  
H2       H      0.677100000000     0.812500000000     0.151166666667     0.0722832  
C6       C      0.726533333333     0.812500000000     0.202666666667    -0.0295149  
C7       C      0.771400000000     0.812500000000     0.222600000000    -0.0143217  
H3       H      0.782133333333     0.812500000000     0.247533333333     0.0718298  
C8       C      0.690366666667     0.812500000000     0.219666666667     0.269292   
C9       C      0.721300000000     0.812500000000     0.107533333333     0.124328   
Cd2      Cd     0.714566666667     0.937500000000     0.091626666667     0.468372   
O6       O      0.788333333333     0.937500000000     0.125800000000    -0.276553   
O7       O      0.798133333333     0.937500000000     0.074433333333    -0.244654   
O8       O      0.961900000000     0.937500000000     0.079100000000    -0.242692   
O9       O      0.685466666667     0.937500000000     0.132833333333    -0.263522   
O10      O      0.699166666667     0.937500000000     0.032533333333    -0.250241   
C10      C      0.812000000000     0.937500000000     0.106966666667     0.312335   
C11      C      0.864066666667     0.937500000000     0.128500000000    -0.038527   
C12      C      0.880200000000     0.937500000000     0.164933333333    -0.0284228  
H4       H      0.859500000000     0.937500000000     0.176333333333     0.0729742  
C13      C      0.928566666667     0.937500000000     0.185766666667     0.00334563 
C14      C      0.957866666667     0.937500000000     0.169000000000    -0.0348998  
H5       H      0.989566666667     0.937500000000     0.182166666667     0.0739334  
C15      C      0.940133333333     0.937500000000     0.130666666667    -0.0307029  
C16      C      0.895266666667     0.937500000000     0.110733333333    -0.0130631  
H6       H      0.884533333333     0.937500000000     0.085800000000     0.0715288  
C17      C      0.976300000000     0.937500000000     0.113666666667     0.276236   
C18      C      0.945366666667     0.937500000000     0.225800000000     0.125067   
Cd3      Cd     0.666666666667     0.750000000000     0.000000000000     0.39198    
Cd4      Cd     0.666666666667     0.875000000000     0.000000000000     0.391998   
N1       N      0.711833333333     0.774100000000     0.420200000000    -0.105331   
N2       N      0.698800000000     0.789300000000     0.387266666667    -0.0752583  
N3       N      0.954833333333     0.899100000000     0.579800000000    -0.104884   
N4       N      0.967866666667     0.914300000000     0.612733333333    -0.0735423  
N5       N      0.954833333333     0.975900000000     0.579800000000    -0.104836   
N6       N      0.967866666667     0.960700000000     0.612733333333    -0.0735034  
N7       N      0.711833333333     0.850900000000     0.420200000000    -0.105333   
N8       N      0.698800000000     0.835700000000     0.387266666667    -0.075259   
Cd1      Cd     0.952100000000     0.812500000000     0.575040000000     0.470109   
O1       O      0.878333333333     0.812500000000     0.540866666667    -0.276581   
O2       O      0.868533333333     0.812500000000     0.592233333333    -0.24424    
O3       O      0.704766666667     0.812500000000     0.587566666667    -0.243805   
O4       O      0.981200000000     0.812500000000     0.533833333333    -0.258023   
O5       O      0.967500000000     0.812500000000     0.634133333333    -0.246515   
C1       C      0.854666666667     0.812500000000     0.559700000000     0.312046   
C2       C      0.802600000000     0.812500000000     0.538166666667    -0.0380518  
C3       C      0.786466666667     0.812500000000     0.501733333333    -0.0289107  
H1       H      0.807166666667     0.812500000000     0.490333333333     0.0731412  
C4       C      0.738100000000     0.812500000000     0.480900000000     0.00351279 
C5       C      0.708800000000     0.812500000000     0.497666666667    -0.0360776  
H2       H      0.677100000000     0.812500000000     0.484500000000     0.0722914  
C6       C      0.726533333333     0.812500000000     0.536000000000    -0.0295157  
C7       C      0.771400000000     0.812500000000     0.555933333333    -0.0143255  
H3       H      0.782133333333     0.812500000000     0.580866666667     0.0718263  
C8       C      0.690366666667     0.812500000000     0.553000000000     0.269288   
C9       C      0.721300000000     0.812500000000     0.440866666667     0.124339   
Cd2      Cd     0.714566666667     0.937500000000     0.424960000000     0.46838    
O6       O      0.788333333333     0.937500000000     0.459133333333    -0.276544   
O7       O      0.798133333333     0.937500000000     0.407766666667    -0.24457    
O8       O      0.961900000000     0.937500000000     0.412433333333    -0.242619   
O9       O      0.685466666667     0.937500000000     0.466166666667    -0.263518   
O10      O      0.699166666667     0.937500000000     0.365866666667    -0.250192   
C10      C      0.812000000000     0.937500000000     0.440300000000     0.31231    
C11      C      0.864066666667     0.937500000000     0.461833333333    -0.0384808  
C12      C      0.880200000000     0.937500000000     0.498266666667    -0.0284501  
H4       H      0.859500000000     0.937500000000     0.509666666667     0.072982   
C13      C      0.928566666667     0.937500000000     0.519100000000     0.00336467 
C14      C      0.957866666667     0.937500000000     0.502333333333    -0.034924   
H5       H      0.989566666667     0.937500000000     0.515500000000     0.0739412  
C15      C      0.940133333333     0.937500000000     0.464000000000    -0.0306614  
C16      C      0.895266666667     0.937500000000     0.444066666667    -0.0130999  
H6       H      0.884533333333     0.937500000000     0.419133333333     0.0715981  
C17      C      0.976300000000     0.937500000000     0.447000000000     0.27623    
C18      C      0.945366666667     0.937500000000     0.559133333333     0.125057   
Cd3      Cd     0.666666666667     0.750000000000     0.333333333333     0.392565   
Cd4      Cd     0.666666666667     0.875000000000     0.333333333333     0.392584   
N1       N      0.711833333333     0.774100000000     0.753533333333    -0.10533    
N2       N      0.698800000000     0.789300000000     0.720600000000    -0.0752609  
N3       N      0.954833333333     0.899100000000     0.913133333333    -0.104863   
N4       N      0.967866666667     0.914300000000     0.946066666667    -0.0733483  
N5       N      0.954833333333     0.975900000000     0.913133333333    -0.104815   
N6       N      0.967866666667     0.960700000000     0.946066666667    -0.0733094  
N7       N      0.711833333333     0.850900000000     0.753533333333    -0.105332   
N8       N      0.698800000000     0.835700000000     0.720600000000    -0.0752616  
Cd1      Cd     0.952100000000     0.812500000000     0.908373333333     0.47018    
O1       O      0.878333333333     0.812500000000     0.874200000000    -0.276563   
O2       O      0.868533333333     0.812500000000     0.925566666667    -0.244079   
O3       O      0.704766666667     0.812500000000     0.920900000000    -0.243636   
O4       O      0.981200000000     0.812500000000     0.867166666667    -0.258026   
O5       O      0.967500000000     0.812500000000     0.967466666667    -0.246054   
C1       C      0.854666666667     0.812500000000     0.893033333333     0.312005   
C2       C      0.802600000000     0.812500000000     0.871500000000    -0.0379687  
C3       C      0.786466666667     0.812500000000     0.835066666667    -0.0289584  
H1       H      0.807166666667     0.812500000000     0.823666666667     0.0731571  
C4       C      0.738100000000     0.812500000000     0.814233333333     0.00355    
C5       C      0.708800000000     0.812500000000     0.831000000000    -0.036124   
H2       H      0.677100000000     0.812500000000     0.817833333333     0.0723065  
C6       C      0.726533333333     0.812500000000     0.869333333333    -0.0294338  
C7       C      0.771400000000     0.812500000000     0.889266666667    -0.0143906  
H3       H      0.782133333333     0.812500000000     0.914200000000     0.0719413  
C8       C      0.690366666667     0.812500000000     0.886333333333     0.269253   
C9       C      0.721300000000     0.812500000000     0.774200000000     0.124324   
Cd2      Cd     0.714566666667     0.937500000000     0.758293333333     0.468375   
O6       O      0.788333333333     0.937500000000     0.792466666667    -0.276541   
O7       O      0.798133333333     0.937500000000     0.741100000000    -0.244575   
O8       O      0.961900000000     0.937500000000     0.745766666667    -0.242624   
O9       O      0.685466666667     0.937500000000     0.799500000000    -0.263512   
O10      O      0.699166666667     0.937500000000     0.699200000000    -0.250197   
C10      C      0.812000000000     0.937500000000     0.773633333333     0.312305   
C11      C      0.864066666667     0.937500000000     0.795166666667    -0.0384773  
C12      C      0.880200000000     0.937500000000     0.831600000000    -0.0284619  
H4       H      0.859500000000     0.937500000000     0.843000000000     0.072996   
C13      C      0.928566666667     0.937500000000     0.852433333333     0.00337328 
C14      C      0.957866666667     0.937500000000     0.835666666667    -0.0349381  
H5       H      0.989566666667     0.937500000000     0.848833333333     0.073956   
C15      C      0.940133333333     0.937500000000     0.797333333333    -0.0306552  
C16      C      0.895266666667     0.937500000000     0.777400000000    -0.0131107  
H6       H      0.884533333333     0.937500000000     0.752466666667     0.0715966  
C17      C      0.976300000000     0.937500000000     0.780333333333     0.27621    
C18      C      0.945366666667     0.937500000000     0.892466666667     0.125078   
Cd3      Cd     0.666666666667     0.750000000000     0.666666666667     0.392556   
Cd4      Cd     0.666666666667     0.875000000000     0.666666666667     0.392575   


