data_[CoreMOF]TOFTIT_clean

_audit_creation_method RASPA-1.0
_audit_creation_date 2025-1-23
_audit_author_name ''

_cell_length_a    31.4955
_cell_length_b    31.4955
_cell_length_c    63.2468
_cell_angle_alpha 119.866
_cell_angle_beta  119.866
_cell_angle_gamma 90
_cell_volume      44542.1

_symmetry_cell_setting          triclinic
_symmetry_space_group_name_Hall 'P 1'
_symmetry_space_group_name_H-M  'P 1'
_symmetry_Int_Tables_number     1

_symmetry_equiv_pos_as_xyz 'x,y,z'

loop_
_atom_site_label
_atom_site_type_symbol
_atom_site_fract_x
_atom_site_fract_y
_atom_site_fract_z
_atom_site_charge
Cu1      Cu     0.769620000000     0.732280000000     0.125710000000     0          
Cu2      Cu     0.518190000000     0.480860000000     0.374285000000     0          
Cu3      Cu     0.481810000000     0.519140000000     0.125715000000     0          
Cu4      Cu     0.453330000000     0.165840000000     0.000005000000     0          
Cu5      Cu     0.809680000000     0.475760000000     0.167430000000     0          
Cu6      Cu     0.834160000000     0.453330000000     0.000000000000     0          
Cu7      Cu     0.732280000000     0.481810000000     0.125710000000     0          
Cu8      Cu     0.859100000000     0.809680000000     0.167430000000     0          
Cu9      Cu     0.750720000000     0.464560000000     0.000000000000     0          
Cu10     Cu     0.140900000000     0.190320000000     0.332570000000     0          
Cu11     Cu     0.525180000000     0.859100000000     0.167430000000     0          
Cu12     Cu     0.475760000000     0.525180000000     0.167430000000     0          
Cu13     Cu     0.464560000000     0.249280000000     0.000000000000     0          
Cu14     Cu     0.535440000000     0.750720000000     0.000000000000     0          
Cu15     Cu     0.230380000000     0.267720000000     0.374290000000     0          
Cu16     Cu     0.519140000000     0.769620000000     0.125715000000     0          
Cu17     Cu     0.249280000000     0.535440000000     0.000000000000     0          
Cu18     Cu     0.165840000000     0.546670000000     0.000000000000     0          
Cu19     Cu     0.474820000000     0.140900000000     0.332570000000     0          
Cu20     Cu     0.524240000000     0.474820000000     0.332570000000     0          
Cu21     Cu     0.546670000000     0.834160000000     0.499995000000     0          
Cu22     Cu     0.267720000000     0.518190000000     0.374290000000     0          
Cu23     Cu     0.190320000000     0.524240000000     0.332570000000     0          
Cu24     Cu     0.480860000000     0.230380000000     0.374285000000     0          
H1       H      0.926200000000     0.899200000000     0.205400000000     0          
H2       H      0.214500000000     0.746300000000     0.363300000000     0          
H3       H      0.274500000000     0.896900000000     0.392200000000     0          
H4       H      0.691300000000     0.786500000000     0.070500000000     0          
H5       H      0.930700000000     0.614600000000     0.061900000000     0          
H6       H      0.463900000000     0.182300000000     0.275400000000     0          
H7       H      0.564600000000     0.770700000000     0.428000000000     0          
H8       H      0.330200000000     0.519600000000     0.072200000000     0          
H9       H      0.624800000000     0.330200000000     0.072200000000     0          
H10      H      0.462300000000     0.207600000000     0.107000000000     0          
H11      H      0.490100000000     0.112500000000     0.107800000000     0          
H12      H      0.689400000000     0.500200000000     0.374800000000     0          
H13      H      0.073800000000     0.100800000000     0.294600000000     0          
H14      H      0.691600000000     0.934500000000     0.224400000000     0          
H15      H      0.725500000000     0.103100000000     0.107800000000     0          
H16      H      0.914700000000     0.435400000000     0.072000000000     0          
H17      H      0.308700000000     0.213500000000     0.429500000000     0          
H18      H      0.490800000000     0.069300000000     0.438100000000     0          
H19      H      0.511600000000     0.926200000000     0.205400000000     0          
H20      H      0.205800000000     0.468400000000     0.228300000000     0          
H21      H      0.322100000000     0.501400000000     0.413400000000     0          
H22      H      0.905800000000     0.445600000000     0.135300000000     0          
H23      H      0.185800000000     0.375200000000     0.427800000000     0          
H24      H      0.749200000000     0.011800000000     0.271700000000     0          
H25      H      0.069300000000     0.385400000000     0.438100000000     0          
H26      H      0.913100000000     0.631500000000     0.224600000000     0          
H27      H      0.817700000000     0.913100000000     0.224600000000     0          
H28      H      0.059900000000     0.445000000000     0.092200000000     0          
H29      H      0.516100000000     0.679300000000     0.158500000000     0          
H30      H      0.480400000000     0.185800000000     0.427800000000     0          
H31      H      0.940100000000     0.555000000000     0.407800000000     0          
H32      H      0.750600000000     0.310600000000     0.125200000000     0          
H33      H      0.484600000000     0.511600000000     0.205400000000     0          
H34      H      0.531600000000     0.749200000000     0.271700000000     0          
H35      H      0.939800000000     0.750600000000     0.125200000000     0          
H36      H      0.631500000000     0.536100000000     0.224600000000     0          
H37      H      0.487900000000     0.019700000000     0.136700000000     0          
H38      H      0.637700000000     0.516100000000     0.158500000000     0          
H39      H      0.674600000000     0.677900000000     0.086600000000     0          
H40      H      0.746300000000     0.512100000000     0.363300000000     0          
H41      H      0.814200000000     0.624800000000     0.072200000000     0          
H42      H      0.085300000000     0.564600000000     0.428000000000     0          
H43      H      0.364800000000     0.825000000000     0.135300000000     0          
H44      H      0.512100000000     0.980300000000     0.363300000000     0          
H45      H      0.019700000000     0.785500000000     0.136700000000     0          
H46      H      0.792400000000     0.248300000000     0.393000000000     0          
H47      H      0.509200000000     0.930700000000     0.061900000000     0          
H48      H      0.229300000000     0.708600000000     0.072000000000     0          
H49      H      0.504700000000     0.325400000000     0.413400000000     0          
H50      H      0.060200000000     0.249400000000     0.374800000000     0          
H51      H      0.751700000000     0.006400000000     0.107000000000     0          
H52      H      0.495300000000     0.674600000000     0.086600000000     0          
H53      H      0.086900000000     0.368500000000     0.275400000000     0          
H54      H      0.785500000000     0.253700000000     0.136700000000     0          
H55      H      0.554400000000     0.635200000000     0.364700000000     0          
H56      H      0.213500000000     0.550300000000     0.429500000000     0          
H57      H      0.291400000000     0.085300000000     0.428000000000     0          
H58      H      0.514300000000     0.691600000000     0.224400000000     0          
H59      H      0.645500000000     0.308700000000     0.429500000000     0          
H60      H      0.509900000000     0.887500000000     0.392200000000     0          
H61      H      0.614600000000     0.193100000000     0.061900000000     0          
H62      H      0.124500000000     0.739400000000     0.092200000000     0          
H63      H      0.112500000000     0.725500000000     0.107800000000     0          
H64      H      0.385400000000     0.806900000000     0.438100000000     0          
H65      H      0.249400000000     0.689400000000     0.374800000000     0          
H66      H      0.899200000000     0.484600000000     0.205400000000     0          
H67      H      0.708600000000     0.914700000000     0.072000000000     0          
H68      H      0.250800000000     0.988200000000     0.228300000000     0          
H69      H      0.445600000000     0.364800000000     0.135300000000     0          
H70      H      0.354500000000     0.691300000000     0.070500000000     0          
H71      H      0.325400000000     0.322100000000     0.413400000000     0          
H72      H      0.435400000000     0.229300000000     0.072000000000     0          
H73      H      0.515400000000     0.488400000000     0.294600000000     0          
H74      H      0.449700000000     0.354500000000     0.070500000000     0          
H75      H      0.094200000000     0.554400000000     0.364700000000     0          
H76      H      0.739400000000     0.059900000000     0.092200000000     0          
H77      H      0.794200000000     0.531600000000     0.271700000000     0          
H78      H      0.887500000000     0.274500000000     0.392200000000     0          
H79      H      0.786500000000     0.449700000000     0.070500000000     0          
H80      H      0.993600000000     0.537700000000     0.393000000000     0          
H81      H      0.011800000000     0.794200000000     0.271700000000     0          
H82      H      0.368500000000     0.463900000000     0.275400000000     0          
H83      H      0.679300000000     0.800900000000     0.158500000000     0          
H84      H      0.182300000000     0.086900000000     0.275400000000     0          
H85      H      0.501400000000     0.504700000000     0.413400000000     0          
H86      H      0.550300000000     0.645500000000     0.429500000000     0          
H87      H      0.483900000000     0.320700000000     0.341500000000     0          
H88      H      0.806900000000     0.490800000000     0.438100000000     0          
H89      H      0.199100000000     0.362300000000     0.341500000000     0          
H90      H      0.488400000000     0.073800000000     0.294600000000     0          
H91      H      0.519600000000     0.814200000000     0.072200000000     0          
H92      H      0.934500000000     0.757200000000     0.224400000000     0          
H93      H      0.445000000000     0.124500000000     0.092200000000     0          
H94      H      0.499800000000     0.939800000000     0.125200000000     0          
H95      H      0.800900000000     0.637700000000     0.158500000000     0          
H96      H      0.100800000000     0.515400000000     0.294600000000     0          
H97      H      0.980300000000     0.214500000000     0.363300000000     0          
H98      H      0.468400000000     0.250800000000     0.228300000000     0          
H99      H      0.555000000000     0.875500000000     0.407800000000     0          
H100     H      0.248300000000     0.993600000000     0.393000000000     0          
H101     H      0.308400000000     0.065500000000     0.275600000000     0          
H102     H      0.320700000000     0.199100000000     0.341500000000     0          
H103     H      0.498600000000     0.495300000000     0.086600000000     0          
H104     H      0.362300000000     0.483900000000     0.341500000000     0          
H105     H      0.310600000000     0.499800000000     0.125200000000     0          
H106     H      0.065500000000     0.242800000000     0.275600000000     0          
H107     H      0.103100000000     0.490100000000     0.107800000000     0          
H108     H      0.175000000000     0.094200000000     0.364700000000     0          
H109     H      0.635200000000     0.175000000000     0.364700000000     0          
H110     H      0.253700000000     0.487900000000     0.136700000000     0          
H111     H      0.500200000000     0.060200000000     0.374800000000     0          
H112     H      0.193100000000     0.509200000000     0.061900000000     0          
H113     H      0.896900000000     0.509900000000     0.392200000000     0          
H114     H      0.537700000000     0.792400000000     0.393000000000     0          
H115     H      0.375200000000     0.669800000000     0.427800000000     0          
H116     H      0.988200000000     0.205800000000     0.228300000000     0          
H117     H      0.006400000000     0.462300000000     0.107000000000     0          
H118     H      0.825000000000     0.905800000000     0.135300000000     0          
H119     H      0.485700000000     0.308400000000     0.275600000000     0          
H120     H      0.669800000000     0.480400000000     0.427800000000     0          
H121     H      0.207600000000     0.751700000000     0.107000000000     0          
H122     H      0.536100000000     0.817700000000     0.224600000000     0          
H123     H      0.260600000000     0.940100000000     0.407800000000     0          
H124     H      0.757200000000     0.514300000000     0.224400000000     0          
H125     H      0.677900000000     0.498600000000     0.086600000000     0          
H126     H      0.770700000000     0.291400000000     0.428000000000     0          
H127     H      0.242800000000     0.485700000000     0.275600000000     0          
H128     H      0.875500000000     0.260600000000     0.407800000000     0          
C1       C      0.706330000000     0.229200000000     0.394400000000     0          
C2       C      0.711350000000     0.819680000000     0.079530000000     0          
C3       C      0.930550000000     0.697690000000     0.228420000000     0          
C4       C      0.445040000000     0.345550000000     0.118210000000     0          
C5       C      0.481680000000     0.300630000000     0.323930000000     0          
C6       C      0.855750000000     0.202480000000     0.370440000000     0          
C7       C      0.461600000000     0.144250000000     0.129560000000     0          
C8       C      0.178750000000     0.479850000000     0.120620000000     0          
C9       C      0.131370000000     0.388710000000     0.436150000000     0          
C10      C      0.472380000000     0.224020000000     0.325950000000     0          
C11      C      0.527620000000     0.775980000000     0.174050000000     0          
C12      C      0.640040000000     0.309500000000     0.078210000000     0          
C13      C      0.697690000000     0.526290000000     0.228420000000     0          
C14      C      0.851740000000     0.203210000000     0.161840000000     0          
C15      C      0.485830000000     0.147970000000     0.381680000000     0          
C16      C      0.770080000000     0.214800000000     0.381510000000     0          
C17      C      0.468550000000     0.219560000000     0.226360000000     0          
C18      C      0.535120000000     0.834270000000     0.321380000000     0          
C19      C      0.774520000000     0.168690000000     0.362310000000     0          
C20      C      0.808490000000     0.535120000000     0.321380000000     0          
C21      C      0.552290000000     0.660620000000     0.420470000000     0          
C22      C      0.120470000000     0.851740000000     0.161840000000     0          
C23      C      0.165730000000     0.892360000000     0.178620000000     0          
C24      C      0.796790000000     0.528060000000     0.338160000000     0          
C25      C      0.099250000000     0.351080000000     0.284360000000     0          
C26      C      0.761210000000     0.841520000000     0.105000000000     0          
C27      C      0.743390000000     0.364340000000     0.459160000000     0          
C28      C      0.831310000000     0.049900000000     0.137690000000     0          
C29      C      0.241440000000     0.777680000000     0.377140000000     0          
C30      C      0.503070000000     0.942130000000     0.094780000000     0          
C31      C      0.225480000000     0.831310000000     0.137690000000     0          
C32      C      0.277530000000     0.615390000000     0.381680000000     0          
C33      C      0.834910000000     0.529020000000     0.362440000000     0          
C34      C      0.752570000000     0.496930000000     0.405220000000     0          
C35      C      0.761310000000     0.474770000000     0.460340000000     0          
C36      C      0.885130000000     0.538400000000     0.370440000000     0          
C37      C      0.238790000000     0.158480000000     0.395000000000     0          
C38      C      0.921840000000     0.715590000000     0.109800000000     0          
C39      C      0.297760000000     0.504010000000     0.109800000000     0          
C40      C      0.373450000000     0.473760000000     0.310740000000     0          
C41      C      0.554960000000     0.654450000000     0.381790000000     0          
C42      C      0.782420000000     0.813900000000     0.119560000000     0          
C43      C      0.308890000000     0.152760000000     0.432680000000     0          
C44      C      0.531450000000     0.780440000000     0.273640000000     0          
C45      C      0.259070000000     0.516410000000     0.063850000000     0          
C46      C      0.293380000000     0.086410000000     0.284420000000     0          
C47      C      0.820480000000     0.572120000000     0.174050000000     0          
C48      C      0.890870000000     0.445040000000     0.118210000000     0          
C49      C      0.293670000000     0.770800000000     0.105600000000     0          
C50      C      0.660620000000     0.288650000000     0.420470000000     0          
C51      C      0.345550000000     0.791380000000     0.118210000000     0          
C52      C      0.706620000000     0.913590000000     0.215580000000     0          
C53      C      0.222320000000     0.487160000000     0.122860000000     0          
C54      C      0.202480000000     0.885130000000     0.370440000000     0          
C55      C      0.456700000000     0.425220000000     0.119560000000     0          
C56      C      0.889970000000     0.195860000000     0.362440000000     0          
C57      C      0.180320000000     0.552290000000     0.420470000000     0          
C58      C      0.858790000000     0.544330000000     0.329610000000     0          
C59      C      0.676770000000     0.864570000000     0.189120000000     0          
C60      C      0.525230000000     0.840630000000     0.039660000000     0          
C61      C      0.057570000000     0.767810000000     0.295400000000     0          
C62      C      0.278460000000     0.103560000000     0.419660000000     0          
C63      C      0.652770000000     0.518320000000     0.176070000000     0          
C64      C      0.810610000000     0.162410000000     0.354320000000     0          
C65      C      0.007060000000     0.451780000000     0.118490000000     0          
C66      C      0.186100000000     0.543300000000     0.380440000000     0          
C67      C      0.885110000000     0.141210000000     0.170390000000     0          
C68      C      0.868630000000     0.611290000000     0.063850000000     0          
C69      C      0.516410000000     0.868630000000     0.063850000000     0          
C70      C      0.083720000000     0.366080000000     0.428270000000     0          
C71      C      0.800430000000     0.114890000000     0.329610000000     0          
C72      C      0.841520000000     0.448790000000     0.105000000000     0          
C73      C      0.256610000000     0.635660000000     0.040840000000     0          
C74      C      0.114870000000     0.461600000000     0.129560000000     0          
C75      C      0.049900000000     0.444070000000     0.137690000000     0          
C76      C      0.834270000000     0.107640000000     0.321380000000     0          
C77      C      0.444070000000     0.225480000000     0.137690000000     0          
C78      C      0.109130000000     0.554960000000     0.381790000000     0          
C79      C      0.528060000000     0.879530000000     0.338160000000     0          
C80      C      0.504010000000     0.921840000000     0.109800000000     0          
C81      C      0.302310000000     0.473710000000     0.271580000000     0          
C82      C      0.984170000000     0.233160000000     0.226360000000     0          
C83      C      0.135430000000     0.298530000000     0.310880000000     0          
C84      C      0.069450000000     0.302310000000     0.271580000000     0          
C85      C      0.443530000000     0.287400000000     0.067320000000     0          
C86      C      0.529020000000     0.889970000000     0.362440000000     0          
C87      C      0.514170000000     0.852030000000     0.118320000000     0          
C88      C      0.284410000000     0.702240000000     0.390200000000     0          
C89      C      0.165090000000     0.470980000000     0.137560000000     0          
C90      C      0.766840000000     0.531450000000     0.273640000000     0          
C91      C      0.715590000000     0.297760000000     0.109800000000     0          
C92      C      0.177010000000     0.942430000000     0.204600000000     0          
C93      C      0.451780000000     0.229920000000     0.118490000000     0          
C94      C      0.821250000000     0.520150000000     0.379380000000     0          
C95      C      0.913590000000     0.724540000000     0.215580000000     0          
C96      C      0.937510000000     0.238610000000     0.379380000000     0          
C97      C      0.082470000000     0.559600000000     0.394400000000     0          
C98      C      0.772820000000     0.490460000000     0.428270000000     0          
C99      C      0.208620000000     0.109130000000     0.381790000000     0          
C100     C      0.722470000000     0.384610000000     0.118320000000     0          
C101     C      0.023400000000     0.758560000000     0.122860000000     0          
C102     C      0.240850000000     0.069450000000     0.271580000000     0          
C103     C      0.482430000000     0.293380000000     0.284420000000     0          
C104     C      0.110030000000     0.804140000000     0.137560000000     0          
C105     C      0.518320000000     0.699370000000     0.176070000000     0          
C106     C      0.992940000000     0.548220000000     0.381510000000     0          
C107     C      0.976600000000     0.241440000000     0.377140000000     0          
C108     C      0.473710000000     0.240850000000     0.271580000000     0          
C109     C      0.670980000000     0.488570000000     0.398210000000     0          
C110     C      0.247430000000     0.503070000000     0.094780000000     0          
C111     C      0.635660000000     0.825070000000     0.040840000000     0          
C112     C      0.648920000000     0.530530000000     0.215640000000     0          
C113     C      0.574780000000     0.217580000000     0.380440000000     0          
C114     C      0.813900000000     0.456700000000     0.119560000000     0          
C115     C      0.845610000000     0.728870000000     0.174020000000     0          
C116     C      0.168690000000     0.950100000000     0.362310000000     0          
C117     C      0.152760000000     0.556470000000     0.432680000000     0          
C118     C      0.767810000000     0.533230000000     0.295400000000     0          
C119     C      0.900750000000     0.648920000000     0.215640000000     0          
C120     C      0.275460000000     0.482430000000     0.284420000000     0          
C121     C      0.692150000000     0.329020000000     0.101790000000     0          
C122     C      0.712600000000     0.308890000000     0.432680000000     0          
C123     C      0.544330000000     0.800430000000     0.329610000000     0          
C124     C      0.490460000000     0.083720000000     0.428270000000     0          
C125     C      0.686490000000     0.247430000000     0.094780000000     0          
C126     C      0.825070000000     0.446020000000     0.040840000000     0          
C127     C      0.942430000000     0.232190000000     0.204600000000     0          
C128     C      0.471940000000     0.120470000000     0.161840000000     0          
C129     C      0.804140000000     0.165090000000     0.137560000000     0          
C130     C      0.144250000000     0.797520000000     0.129560000000     0          
C131     C      0.232190000000     0.466770000000     0.204600000000     0          
C132     C      0.556470000000     0.712600000000     0.432680000000     0          
C133     C      0.464880000000     0.165730000000     0.178620000000     0          
C134     C      0.699370000000     0.833820000000     0.176070000000     0          
C135     C      0.309500000000     0.516380000000     0.078210000000     0          
C136     C      0.248030000000     0.147720000000     0.310740000000     0          
C137     C      0.690500000000     0.483620000000     0.421790000000     0          
C138     C      0.103560000000     0.560860000000     0.419660000000     0          
C139     C      0.572120000000     0.527620000000     0.174050000000     0          
C140     C      0.479850000000     0.062490000000     0.120620000000     0          
C141     C      0.313510000000     0.752570000000     0.405220000000     0          
C142     C      0.199570000000     0.885110000000     0.170390000000     0          
C143     C      0.751970000000     0.852280000000     0.189260000000     0          
C144     C      0.555930000000     0.774520000000     0.362310000000     0          
C145     C      0.086410000000     0.275460000000     0.284420000000     0          
C146     C      0.728870000000     0.502430000000     0.174020000000     0          
C147     C      0.777680000000     0.512840000000     0.377140000000     0          
C148     C      0.229920000000     0.785200000000     0.118490000000     0          
C149     C      0.633920000000     0.227180000000     0.071730000000     0          
C150     C      0.153080000000     0.359960000000     0.421790000000     0          
C151     C      0.701470000000     0.513670000000     0.189120000000     0          
C152     C      0.538400000000     0.855750000000     0.370440000000     0          
C153     C      0.486330000000     0.323230000000     0.310880000000     0          
C154     C      0.512840000000     0.976600000000     0.377140000000     0          
C155     C      0.148260000000     0.796790000000     0.338160000000     0          
C156     C      0.469470000000     0.217640000000     0.284360000000     0          
C157     C      0.879530000000     0.148260000000     0.338160000000     0          
C158     C      0.502430000000     0.619170000000     0.174020000000     0          
C159     C      0.530530000000     0.782360000000     0.215640000000     0          
C160     C      0.015830000000     0.766840000000     0.273640000000     0          
C161     C      0.466770000000     0.177010000000     0.204600000000     0          
C162     C      0.159370000000     0.445910000000     0.460340000000     0          
C163     C      0.107640000000     0.808490000000     0.321380000000     0          
C164     C      0.615390000000     0.485830000000     0.381680000000     0          
C165     C      0.791380000000     0.890870000000     0.118210000000     0          
C166     C      0.339380000000     0.711350000000     0.079530000000     0          
C167     C      0.553980000000     0.743390000000     0.459160000000     0          
C168     C      0.721540000000     0.896440000000     0.080340000000     0          
C169     C      0.351080000000     0.469470000000     0.284360000000     0          
C170     C      0.619170000000     0.845610000000     0.174020000000     0          
C171     C      0.797520000000     0.114870000000     0.129560000000     0          
C172     C      0.307850000000     0.670980000000     0.398210000000     0          
C173     C      0.495990000000     0.078160000000     0.390200000000     0          
C174     C      0.388710000000     0.740930000000     0.436150000000     0          
C175     C      0.224020000000     0.179520000000     0.325950000000     0          
C176     C      0.298530000000     0.486330000000     0.310880000000     0          
C177     C      0.833820000000     0.652770000000     0.176070000000     0          
C178     C      0.323230000000     0.135430000000     0.310880000000     0          
C179     C      0.446020000000     0.256610000000     0.040840000000     0          
C180     C      0.474770000000     0.159370000000     0.460340000000     0          
C181     C      0.917530000000     0.440400000000     0.105600000000     0          
C182     C      0.551210000000     0.631520000000     0.395000000000     0          
C183     C      0.078160000000     0.284410000000     0.390200000000     0          
C184     C      0.950100000000     0.555930000000     0.362310000000     0          
C185     C      0.174930000000     0.553980000000     0.459160000000     0          
C186     C      0.427880000000     0.472380000000     0.325950000000     0          
C187     C      0.758560000000     0.222320000000     0.122860000000     0          
C188     C      0.548220000000     0.770080000000     0.381510000000     0          
C189     C      0.147970000000     0.277530000000     0.381680000000     0          
C190     C      0.141210000000     0.455670000000     0.170390000000     0          
C191     C      0.822990000000     0.057570000000     0.295400000000     0          
C192     C      0.219560000000     0.984170000000     0.226360000000     0          
C193     C      0.509540000000     0.916280000000     0.071730000000     0          
C194     C      0.702240000000     0.495990000000     0.390200000000     0          
C195     C      0.125440000000     0.307850000000     0.398210000000     0          
C196     C      0.496930000000     0.057870000000     0.405220000000     0          
C197     C      0.511430000000     0.874560000000     0.101790000000     0          
C198     C      0.057870000000     0.313510000000     0.405220000000     0          
C199     C      0.488570000000     0.125440000000     0.398210000000     0          
C200     C      0.440400000000     0.293670000000     0.105600000000     0          
C201     C      0.497570000000     0.380830000000     0.325980000000     0          
C202     C      0.217580000000     0.186100000000     0.380440000000     0          
C203     C      0.162410000000     0.898030000000     0.354320000000     0          
C204     C      0.238610000000     0.821250000000     0.379380000000     0          
C205     C      0.654450000000     0.208620000000     0.381790000000     0          
C206     C      0.846920000000     0.640040000000     0.078210000000     0          
C207     C      0.425220000000     0.782420000000     0.119560000000     0          
C208     C      0.626550000000     0.526240000000     0.189260000000     0          
C209     C      0.229200000000     0.082470000000     0.394400000000     0          
C210     C      0.770800000000     0.917530000000     0.105600000000     0          
C211     C      0.761390000000     0.178750000000     0.120620000000     0          
C212     C      0.487160000000     0.023400000000     0.122860000000     0          
C213     C      0.364340000000     0.174930000000     0.459160000000     0          
C214     C      0.455670000000     0.199570000000     0.170390000000     0          
C215     C      0.546230000000     0.810610000000     0.354320000000     0          
C216     C      0.264240000000     0.721540000000     0.080340000000     0          
C217     C      0.366080000000     0.772820000000     0.428270000000     0          
C218     C      0.847240000000     0.443530000000     0.067320000000     0          
C219     C      0.483590000000     0.131370000000     0.436150000000     0          
C220     C      0.347230000000     0.481680000000     0.323930000000     0          
C221     C      0.158480000000     0.551210000000     0.395000000000     0          
C222     C      0.203210000000     0.471940000000     0.161840000000     0          
C223     C      0.516380000000     0.846920000000     0.078210000000     0          
C224     C      0.837590000000     0.101970000000     0.145680000000     0          
C225     C      0.445910000000     0.761310000000     0.460340000000     0          
C226     C      0.775980000000     0.820480000000     0.174050000000     0          
C227     C      0.520150000000     0.937510000000     0.379380000000     0          
C228     C      0.533230000000     0.822990000000     0.295400000000     0          
C229     C      0.483620000000     0.153080000000     0.421790000000     0          
C230     C      0.942130000000     0.686490000000     0.094780000000     0          
C231     C      0.101970000000     0.453770000000     0.145680000000     0          
C232     C      0.380830000000     0.154390000000     0.325980000000     0          
C233     C      0.359960000000     0.690500000000     0.421790000000     0          
C234     C      0.892360000000     0.191510000000     0.178620000000     0          
C235     C      0.470980000000     0.110030000000     0.137560000000     0          
C236     C      0.554090000000     0.238690000000     0.039660000000     0          
C237     C      0.840630000000     0.554090000000     0.039660000000     0          
C238     C      0.898030000000     0.546230000000     0.354320000000     0          
C239     C      0.233160000000     0.468550000000     0.226360000000     0          
C240     C      0.147720000000     0.373450000000     0.310740000000     0          
C241     C      0.195860000000     0.834910000000     0.362440000000     0          
C242     C      0.384610000000     0.514170000000     0.118320000000     0          
C243     C      0.517570000000     0.706620000000     0.215580000000     0          
C244     C      0.217640000000     0.099250000000     0.284360000000     0          
C245     C      0.559600000000     0.706330000000     0.394400000000     0          
C246     C      0.271130000000     0.497570000000     0.325980000000     0          
C247     C      0.368480000000     0.761210000000     0.105000000000     0          
C248     C      0.439140000000     0.264240000000     0.080340000000     0          
C249     C      0.166180000000     0.347230000000     0.323930000000     0          
C250     C      0.735760000000     0.278460000000     0.419660000000     0          
C251     C      0.329020000000     0.511430000000     0.101790000000     0          
C252     C      0.526240000000     0.751970000000     0.189260000000     0          
C253     C      0.189390000000     0.837590000000     0.145680000000     0          
C254     C      0.062490000000     0.761390000000     0.120620000000     0          
C255     C      0.214800000000     0.992940000000     0.381510000000     0          
C256     C      0.691110000000     0.847240000000     0.067320000000     0          
C257     C      0.227180000000     0.509540000000     0.071730000000     0          
C258     C      0.473760000000     0.248030000000     0.310740000000     0          
C259     C      0.526290000000     0.759150000000     0.228420000000     0          
C260     C      0.288650000000     0.180320000000     0.420470000000     0          
C261     C      0.852030000000     0.722470000000     0.118320000000     0          
C262     C      0.780440000000     0.015830000000     0.273640000000     0          
C263     C      0.191510000000     0.464880000000     0.178620000000     0          
C264     C      0.896440000000     0.439140000000     0.080340000000     0          
C265     C      0.874560000000     0.692150000000     0.101790000000     0          
C266     C      0.238690000000     0.525230000000     0.039660000000     0          
C267     C      0.759150000000     0.930550000000     0.228420000000     0          
C268     C      0.819680000000     0.447710000000     0.079530000000     0          
C269     C      0.611290000000     0.259070000000     0.063850000000     0          
C270     C      0.154390000000     0.271130000000     0.325980000000     0          
C271     C      0.852280000000     0.626550000000     0.189260000000     0          
C272     C      0.448790000000     0.368480000000     0.105000000000     0          
C273     C      0.287400000000     0.691110000000     0.067320000000     0          
C274     C      0.782360000000     0.900750000000     0.215640000000     0          
C275     C      0.631520000000     0.238790000000     0.395000000000     0          
C276     C      0.543300000000     0.574780000000     0.380440000000     0          
C277     C      0.114890000000     0.858790000000     0.329610000000     0          
C278     C      0.560860000000     0.735760000000     0.419660000000     0          
C279     C      0.740930000000     0.483590000000     0.436150000000     0          
C280     C      0.453770000000     0.189390000000     0.145680000000     0          
C281     C      0.785200000000     0.007060000000     0.118490000000     0          
C282     C      0.179520000000     0.427880000000     0.325950000000     0          
C283     C      0.916280000000     0.633920000000     0.071730000000     0          
C284     C      0.513670000000     0.676770000000     0.189120000000     0          
C285     C      0.864570000000     0.701470000000     0.189120000000     0          
C286     C      0.724540000000     0.517570000000     0.215580000000     0          
C287     C      0.300630000000     0.166180000000     0.323930000000     0          
C288     C      0.447710000000     0.339380000000     0.079530000000     0          
N1       N      0.314310000000     0.836790000000     0.415510000000     0          
N2       N      0.798760000000     0.968230000000     0.119970000000     0          
N3       N      0.575000000000     0.705940000000     0.360680000000     0          
N4       N      0.522550000000     0.949240000000     0.403250000000     0          
N5       N      0.213600000000     0.493240000000     0.101880000000     0          
N6       N      0.716050000000     0.142740000000     0.096750000000     0          
N7       N      0.990160000000     0.710520000000     0.101880000000     0          
N8       N      0.047460000000     0.721400000000     0.289960000000     0          
N9       N      0.009840000000     0.289480000000     0.398120000000     0          
N10      N      0.037500000000     0.429000000000     0.151250000000     0          
N11      N      0.308460000000     0.471600000000     0.235200000000     0          
N12      N      0.005770000000     0.685690000000     0.084490000000     0          
N13      N      0.728290000000     0.201240000000     0.380030000000     0          
N14      N      0.916400000000     0.526100000000     0.390200000000     0          
N15      N      0.691540000000     0.528400000000     0.264800000000     0          
N16      N      0.209220000000     0.018510000000     0.244510000000     0          
N17      N      0.685690000000     0.163210000000     0.084490000000     0          
N18      N      0.015420000000     0.575000000000     0.360680000000     0          
N19      N      0.271710000000     0.798760000000     0.119970000000     0          
N20      N      0.981490000000     0.720200000000     0.255490000000     0          
N21      N      0.473900000000     0.136000000000     0.109800000000     0          
N22      N      0.467540000000     0.141480000000     0.210040000000     0          
N23      N      0.529490000000     0.790780000000     0.255490000000     0          
N24      N      0.962500000000     0.571000000000     0.348750000000     0          
N25      N      0.283950000000     0.857260000000     0.403250000000     0          
N26      N      0.429000000000     0.265000000000     0.151250000000     0          
N27      N      0.516710000000     0.994230000000     0.415510000000     0          
N28      N      0.050760000000     0.716050000000     0.096750000000     0          
N29      N      0.279800000000     0.470510000000     0.244510000000     0          
N30      N      0.477450000000     0.050760000000     0.096750000000     0          
N31      N      0.984580000000     0.425000000000     0.139320000000     0          
N32      N      0.294060000000     0.853640000000     0.139320000000     0          
N33      N      0.571000000000     0.735000000000     0.348750000000     0          
N34      N      0.994230000000     0.314310000000     0.415510000000     0          
N35      N      0.864000000000     0.254300000000     0.390200000000     0          
N36      N      0.493240000000     0.990160000000     0.101880000000     0          
N37      N      0.836790000000     0.516710000000     0.415510000000     0          
N38      N      0.786400000000     0.506760000000     0.398120000000     0          
N39      N      0.278600000000     0.467540000000     0.210040000000     0          
N40      N      0.705940000000     0.146360000000     0.360680000000     0          
N41      N      0.141480000000     0.952540000000     0.210040000000     0          
N42      N      0.558820000000     0.728290000000     0.380030000000     0          
N43      N      0.720200000000     0.529490000000     0.255490000000     0          
N44      N      0.721400000000     0.532460000000     0.289960000000     0          
N45      N      0.790780000000     0.981490000000     0.255490000000     0          
N46      N      0.838060000000     0.001200000000     0.264800000000     0          
N47      N      0.526100000000     0.864000000000     0.390200000000     0          
N48      N      0.710520000000     0.213600000000     0.101880000000     0          
N49      N      0.001200000000     0.691540000000     0.264800000000     0          
N50      N      0.745700000000     0.083600000000     0.109800000000     0          
N51      N      0.735000000000     0.126500000000     0.348750000000     0          
N52      N      0.506760000000     0.009840000000     0.398120000000     0          
N53      N      0.873500000000     0.037500000000     0.151250000000     0          
N54      N      0.483290000000     0.005770000000     0.084490000000     0          
N55      N      0.853640000000     0.984580000000     0.139320000000     0          
N56      N      0.126500000000     0.962500000000     0.348750000000     0          
N57      N      0.470510000000     0.209220000000     0.244510000000     0          
N58      N      0.265000000000     0.873500000000     0.151250000000     0          
N59      N      0.949240000000     0.283950000000     0.403250000000     0          
N60      N      0.142740000000     0.477450000000     0.096750000000     0          
N61      N      0.163210000000     0.483290000000     0.084490000000     0          
N62      N      0.254300000000     0.916400000000     0.390200000000     0          
N63      N      0.136000000000     0.745700000000     0.109800000000     0          
N64      N      0.018510000000     0.279800000000     0.244510000000     0          
N65      N      0.532460000000     0.858520000000     0.289960000000     0          
N66      N      0.998800000000     0.308460000000     0.235200000000     0          
N67      N      0.528400000000     0.838060000000     0.264800000000     0          
N68      N      0.471600000000     0.161940000000     0.235200000000     0          
N69      N      0.968230000000     0.441180000000     0.119970000000     0          
N70      N      0.441180000000     0.271710000000     0.119970000000     0          
N71      N      0.425000000000     0.294060000000     0.139320000000     0          
N72      N      0.031770000000     0.558820000000     0.380030000000     0          
N73      N      0.201240000000     0.031770000000     0.380030000000     0          
N74      N      0.161940000000     0.998800000000     0.235200000000     0          
N75      N      0.146360000000     0.015420000000     0.360680000000     0          
N76      N      0.952540000000     0.278600000000     0.210040000000     0          
N77      N      0.858520000000     0.047460000000     0.289960000000     0          
N78      N      0.857260000000     0.522550000000     0.403250000000     0          
N79      N      0.289480000000     0.786400000000     0.398120000000     0          
N80      N      0.083600000000     0.473900000000     0.109800000000     0          
O1       O      0.476170000000     0.205300000000     0.469240000000     0          
O2       O      0.229980000000     0.538620000000     0.392900000000     0          
O3       O      0.803910000000     0.467520000000     0.469410000000     0          
O4       O      0.770020000000     0.461380000000     0.107100000000     0          
O5       O      0.597170000000     0.483470000000     0.358210000000     0          
O6       O      0.229350000000     0.506190000000     0.314720000000     0          
O7       O      0.556970000000     0.789800000000     0.468790000000     0          
O8       O      0.210200000000     0.619390000000     0.031210000000     0          
O9       O      0.548030000000     0.719580000000     0.469040000000     0          
O10      O      0.380610000000     0.147780000000     0.468790000000     0          
O11      O      0.506190000000     0.400090000000     0.314720000000     0          
O12      O      0.493810000000     0.599910000000     0.185280000000     0          
O13      O      0.667650000000     0.485040000000     0.092130000000     0          
O14      O      0.767050000000     0.402830000000     0.141790000000     0          
O15      O      0.523620000000     0.746580000000     0.150200000000     0          
O16      O      0.550350000000     0.172940000000     0.356810000000     0          
O17      O      0.467520000000     0.134910000000     0.469410000000     0          
O18      O      0.549630000000     0.532170000000     0.186350000000     0          
O19      O      0.462310000000     0.733180000000     0.469240000000     0          
O20      O      0.516610000000     0.699220000000     0.092130000000     0          
O21      O      0.827060000000     0.836730000000     0.143190000000     0          
O22      O      0.609950000000     0.781500000000     0.030960000000     0          
O23      O      0.232950000000     0.597170000000     0.358210000000     0          
O24      O      0.619390000000     0.852220000000     0.031210000000     0          
O25      O      0.555820000000     0.247180000000     0.392900000000     0          
O26      O      0.483470000000     0.119250000000     0.358210000000     0          
O27      O      0.266820000000     0.523830000000     0.030760000000     0          
O28      O      0.800060000000     0.707290000000     0.151010000000     0          
O29      O      0.470430000000     0.530460000000     0.200910000000     0          
O30      O      0.446180000000     0.476380000000     0.349800000000     0          
O31      O      0.530460000000     0.931390000000     0.200910000000     0          
O32      O      0.871360000000     0.470430000000     0.200910000000     0          
O33      O      0.119250000000     0.232950000000     0.358210000000     0          
O34      O      0.746580000000     0.776780000000     0.150200000000     0          
O35      O      0.443030000000     0.210200000000     0.031210000000     0          
O36      O      0.449650000000     0.827060000000     0.143190000000     0          
O37      O      0.253420000000     0.223220000000     0.349800000000     0          
O38      O      0.483390000000     0.300780000000     0.407870000000     0          
O39      O      0.590960000000     0.485070000000     0.392300000000     0          
O40      O      0.292710000000     0.498040000000     0.348990000000     0          
O41      O      0.700470000000     0.409040000000     0.107700000000     0          
O42      O      0.205300000000     0.462310000000     0.469240000000     0          
O43      O      0.068610000000     0.128640000000     0.299090000000     0          
O44      O      0.840530000000     0.549630000000     0.186350000000     0          
O45      O      0.789800000000     0.380610000000     0.468790000000     0          
O46      O      0.332350000000     0.514960000000     0.407870000000     0          
O47      O      0.299530000000     0.590960000000     0.392300000000     0          
O48      O      0.752820000000     0.770020000000     0.107100000000     0          
O49      O      0.176930000000     0.159470000000     0.313650000000     0          
O50      O      0.223220000000     0.446180000000     0.349800000000     0          
O51      O      0.444180000000     0.752820000000     0.107100000000     0          
O52      O      0.770650000000     0.493810000000     0.185280000000     0          
O53      O      0.514930000000     0.806360000000     0.107700000000     0          
O54      O      0.459320000000     0.449650000000     0.143190000000     0          
O55      O      0.733180000000     0.476170000000     0.469240000000     0          
O56      O      0.553820000000     0.523620000000     0.150200000000     0          
O57      O      0.134910000000     0.471300000000     0.469410000000     0          
O58      O      0.163270000000     0.540680000000     0.356810000000     0          
O59      O      0.540680000000     0.550350000000     0.356810000000     0          
O60      O      0.538620000000     0.555820000000     0.392900000000     0          
O61      O      0.781500000000     0.451970000000     0.030960000000     0          
O62      O      0.199940000000     0.292710000000     0.348990000000     0          
O63      O      0.450370000000     0.467830000000     0.313650000000     0          
O64      O      0.836730000000     0.459320000000     0.143190000000     0          
O65      O      0.280420000000     0.609950000000     0.030960000000     0          
O66      O      0.806360000000     0.700470000000     0.107700000000     0          
O67      O      0.471300000000     0.803910000000     0.469410000000     0          
O68      O      0.400090000000     0.123250000000     0.314720000000     0          
O69      O      0.402830000000     0.516530000000     0.141790000000     0          
O70      O      0.476380000000     0.253420000000     0.349800000000     0          
O71      O      0.516530000000     0.880750000000     0.141790000000     0          
O72      O      0.528700000000     0.196090000000     0.030590000000     0          
O73      O      0.405270000000     0.199940000000     0.348990000000     0          
O74      O      0.196090000000     0.532480000000     0.030590000000     0          
O75      O      0.537690000000     0.266820000000     0.030760000000     0          
O76      O      0.469540000000     0.068610000000     0.299090000000     0          
O77      O      0.193640000000     0.299530000000     0.392300000000     0          
O78      O      0.523830000000     0.794700000000     0.030760000000     0          
O79      O      0.865090000000     0.528700000000     0.030590000000     0          
O80      O      0.599910000000     0.876750000000     0.185280000000     0          
O81      O      0.876750000000     0.770650000000     0.185280000000     0          
O82      O      0.794700000000     0.537690000000     0.030760000000     0          
O83      O      0.776780000000     0.553820000000     0.150200000000     0          
O84      O      0.529570000000     0.469540000000     0.299090000000     0          
O85      O      0.532170000000     0.823070000000     0.186350000000     0          
O86      O      0.823070000000     0.840530000000     0.186350000000     0          
O87      O      0.498040000000     0.405270000000     0.348990000000     0          
O88      O      0.390050000000     0.218500000000     0.469040000000     0          
O89      O      0.159470000000     0.450370000000     0.313650000000     0          
O90      O      0.719580000000     0.390050000000     0.469040000000     0          
O91      O      0.128640000000     0.529570000000     0.299090000000     0          
O92      O      0.300780000000     0.332350000000     0.407870000000     0          
O93      O      0.247180000000     0.229980000000     0.392900000000     0          
O94      O      0.409040000000     0.514930000000     0.107700000000     0          
O95      O      0.852220000000     0.443030000000     0.031210000000     0          
O96      O      0.147780000000     0.556970000000     0.468790000000     0          
O97      O      0.485070000000     0.193640000000     0.392300000000     0          
O98      O      0.218500000000     0.548030000000     0.469040000000     0          
O99      O      0.123250000000     0.229350000000     0.314720000000     0          
O100     O      0.880750000000     0.767050000000     0.141790000000     0          
O101     O      0.501960000000     0.594730000000     0.151010000000     0          
O102     O      0.514960000000     0.483390000000     0.407870000000     0          
O103     O      0.461380000000     0.444180000000     0.107100000000     0          
O104     O      0.451970000000     0.280420000000     0.030960000000     0          
O105     O      0.931390000000     0.871360000000     0.200910000000     0          
O106     O      0.707290000000     0.501960000000     0.151010000000     0          
O107     O      0.172940000000     0.163270000000     0.356810000000     0          
O108     O      0.467830000000     0.176930000000     0.313650000000     0          
O109     O      0.485040000000     0.516610000000     0.092130000000     0          
O110     O      0.699220000000     0.667650000000     0.092130000000     0          
O111     O      0.532480000000     0.865090000000     0.030590000000     0          
O112     O      0.594730000000     0.800060000000     0.151010000000     0          
Cu1      Cu     0.769620000000     0.732280000000     0.625710000000     0          
Cu2      Cu     0.518190000000     0.480860000000     0.874285000000     0          
Cu3      Cu     0.481810000000     0.519140000000     0.625715000000     0          
Cu4      Cu     0.453330000000     0.165840000000     0.500005000000     0          
Cu5      Cu     0.809680000000     0.475760000000     0.667430000000     0          
Cu6      Cu     0.834160000000     0.453330000000     0.500000000000     0          
Cu7      Cu     0.732280000000     0.481810000000     0.625710000000     0          
Cu8      Cu     0.859100000000     0.809680000000     0.667430000000     0          
Cu9      Cu     0.750720000000     0.464560000000     0.500000000000     0          
Cu10     Cu     0.140900000000     0.190320000000     0.832570000000     0          
Cu11     Cu     0.525180000000     0.859100000000     0.667430000000     0          
Cu12     Cu     0.475760000000     0.525180000000     0.667430000000     0          
Cu13     Cu     0.464560000000     0.249280000000     0.500000000000     0          
Cu14     Cu     0.535440000000     0.750720000000     0.500000000000     0          
Cu15     Cu     0.230380000000     0.267720000000     0.874290000000     0          
Cu16     Cu     0.519140000000     0.769620000000     0.625715000000     0          
Cu17     Cu     0.249280000000     0.535440000000     0.500000000000     0          
Cu18     Cu     0.165840000000     0.546670000000     0.500000000000     0          
Cu19     Cu     0.474820000000     0.140900000000     0.832570000000     0          
Cu20     Cu     0.524240000000     0.474820000000     0.832570000000     0          
Cu21     Cu     0.546670000000     0.834160000000     0.999995000000     0          
Cu22     Cu     0.267720000000     0.518190000000     0.874290000000     0          
Cu23     Cu     0.190320000000     0.524240000000     0.832570000000     0          
Cu24     Cu     0.480860000000     0.230380000000     0.874285000000     0          
H1       H      0.926200000000     0.899200000000     0.705400000000     0          
H2       H      0.214500000000     0.746300000000     0.863300000000     0          
H3       H      0.274500000000     0.896900000000     0.892200000000     0          
H4       H      0.691300000000     0.786500000000     0.570500000000     0          
H5       H      0.930700000000     0.614600000000     0.561900000000     0          
H6       H      0.463900000000     0.182300000000     0.775400000000     0          
H7       H      0.564600000000     0.770700000000     0.928000000000     0          
H8       H      0.330200000000     0.519600000000     0.572200000000     0          
H9       H      0.624800000000     0.330200000000     0.572200000000     0          
H10      H      0.462300000000     0.207600000000     0.607000000000     0          
H11      H      0.490100000000     0.112500000000     0.607800000000     0          
H12      H      0.689400000000     0.500200000000     0.874800000000     0          
H13      H      0.073800000000     0.100800000000     0.794600000000     0          
H14      H      0.691600000000     0.934500000000     0.724400000000     0          
H15      H      0.725500000000     0.103100000000     0.607800000000     0          
H16      H      0.914700000000     0.435400000000     0.572000000000     0          
H17      H      0.308700000000     0.213500000000     0.929500000000     0          
H18      H      0.490800000000     0.069300000000     0.938100000000     0          
H19      H      0.511600000000     0.926200000000     0.705400000000     0          
H20      H      0.205800000000     0.468400000000     0.728300000000     0          
H21      H      0.322100000000     0.501400000000     0.913400000000     0          
H22      H      0.905800000000     0.445600000000     0.635300000000     0          
H23      H      0.185800000000     0.375200000000     0.927800000000     0          
H24      H      0.749200000000     0.011800000000     0.771700000000     0          
H25      H      0.069300000000     0.385400000000     0.938100000000     0          
H26      H      0.913100000000     0.631500000000     0.724600000000     0          
H27      H      0.817700000000     0.913100000000     0.724600000000     0          
H28      H      0.059900000000     0.445000000000     0.592200000000     0          
H29      H      0.516100000000     0.679300000000     0.658500000000     0          
H30      H      0.480400000000     0.185800000000     0.927800000000     0          
H31      H      0.940100000000     0.555000000000     0.907800000000     0          
H32      H      0.750600000000     0.310600000000     0.625200000000     0          
H33      H      0.484600000000     0.511600000000     0.705400000000     0          
H34      H      0.531600000000     0.749200000000     0.771700000000     0          
H35      H      0.939800000000     0.750600000000     0.625200000000     0          
H36      H      0.631500000000     0.536100000000     0.724600000000     0          
H37      H      0.487900000000     0.019700000000     0.636700000000     0          
H38      H      0.637700000000     0.516100000000     0.658500000000     0          
H39      H      0.674600000000     0.677900000000     0.586600000000     0          
H40      H      0.746300000000     0.512100000000     0.863300000000     0          
H41      H      0.814200000000     0.624800000000     0.572200000000     0          
H42      H      0.085300000000     0.564600000000     0.928000000000     0          
H43      H      0.364800000000     0.825000000000     0.635300000000     0          
H44      H      0.512100000000     0.980300000000     0.863300000000     0          
H45      H      0.019700000000     0.785500000000     0.636700000000     0          
H46      H      0.792400000000     0.248300000000     0.893000000000     0          
H47      H      0.509200000000     0.930700000000     0.561900000000     0          
H48      H      0.229300000000     0.708600000000     0.572000000000     0          
H49      H      0.504700000000     0.325400000000     0.913400000000     0          
H50      H      0.060200000000     0.249400000000     0.874800000000     0          
H51      H      0.751700000000     0.006400000000     0.607000000000     0          
H52      H      0.495300000000     0.674600000000     0.586600000000     0          
H53      H      0.086900000000     0.368500000000     0.775400000000     0          
H54      H      0.785500000000     0.253700000000     0.636700000000     0          
H55      H      0.554400000000     0.635200000000     0.864700000000     0          
H56      H      0.213500000000     0.550300000000     0.929500000000     0          
H57      H      0.291400000000     0.085300000000     0.928000000000     0          
H58      H      0.514300000000     0.691600000000     0.724400000000     0          
H59      H      0.645500000000     0.308700000000     0.929500000000     0          
H60      H      0.509900000000     0.887500000000     0.892200000000     0          
H61      H      0.614600000000     0.193100000000     0.561900000000     0          
H62      H      0.124500000000     0.739400000000     0.592200000000     0          
H63      H      0.112500000000     0.725500000000     0.607800000000     0          
H64      H      0.385400000000     0.806900000000     0.938100000000     0          
H65      H      0.249400000000     0.689400000000     0.874800000000     0          
H66      H      0.899200000000     0.484600000000     0.705400000000     0          
H67      H      0.708600000000     0.914700000000     0.572000000000     0          
H68      H      0.250800000000     0.988200000000     0.728300000000     0          
H69      H      0.445600000000     0.364800000000     0.635300000000     0          
H70      H      0.354500000000     0.691300000000     0.570500000000     0          
H71      H      0.325400000000     0.322100000000     0.913400000000     0          
H72      H      0.435400000000     0.229300000000     0.572000000000     0          
H73      H      0.515400000000     0.488400000000     0.794600000000     0          
H74      H      0.449700000000     0.354500000000     0.570500000000     0          
H75      H      0.094200000000     0.554400000000     0.864700000000     0          
H76      H      0.739400000000     0.059900000000     0.592200000000     0          
H77      H      0.794200000000     0.531600000000     0.771700000000     0          
H78      H      0.887500000000     0.274500000000     0.892200000000     0          
H79      H      0.786500000000     0.449700000000     0.570500000000     0          
H80      H      0.993600000000     0.537700000000     0.893000000000     0          
H81      H      0.011800000000     0.794200000000     0.771700000000     0          
H82      H      0.368500000000     0.463900000000     0.775400000000     0          
H83      H      0.679300000000     0.800900000000     0.658500000000     0          
H84      H      0.182300000000     0.086900000000     0.775400000000     0          
H85      H      0.501400000000     0.504700000000     0.913400000000     0          
H86      H      0.550300000000     0.645500000000     0.929500000000     0          
H87      H      0.483900000000     0.320700000000     0.841500000000     0          
H88      H      0.806900000000     0.490800000000     0.938100000000     0          
H89      H      0.199100000000     0.362300000000     0.841500000000     0          
H90      H      0.488400000000     0.073800000000     0.794600000000     0          
H91      H      0.519600000000     0.814200000000     0.572200000000     0          
H92      H      0.934500000000     0.757200000000     0.724400000000     0          
H93      H      0.445000000000     0.124500000000     0.592200000000     0          
H94      H      0.499800000000     0.939800000000     0.625200000000     0          
H95      H      0.800900000000     0.637700000000     0.658500000000     0          
H96      H      0.100800000000     0.515400000000     0.794600000000     0          
H97      H      0.980300000000     0.214500000000     0.863300000000     0          
H98      H      0.468400000000     0.250800000000     0.728300000000     0          
H99      H      0.555000000000     0.875500000000     0.907800000000     0          
H100     H      0.248300000000     0.993600000000     0.893000000000     0          
H101     H      0.308400000000     0.065500000000     0.775600000000     0          
H102     H      0.320700000000     0.199100000000     0.841500000000     0          
H103     H      0.498600000000     0.495300000000     0.586600000000     0          
H104     H      0.362300000000     0.483900000000     0.841500000000     0          
H105     H      0.310600000000     0.499800000000     0.625200000000     0          
H106     H      0.065500000000     0.242800000000     0.775600000000     0          
H107     H      0.103100000000     0.490100000000     0.607800000000     0          
H108     H      0.175000000000     0.094200000000     0.864700000000     0          
H109     H      0.635200000000     0.175000000000     0.864700000000     0          
H110     H      0.253700000000     0.487900000000     0.636700000000     0          
H111     H      0.500200000000     0.060200000000     0.874800000000     0          
H112     H      0.193100000000     0.509200000000     0.561900000000     0          
H113     H      0.896900000000     0.509900000000     0.892200000000     0          
H114     H      0.537700000000     0.792400000000     0.893000000000     0          
H115     H      0.375200000000     0.669800000000     0.927800000000     0          
H116     H      0.988200000000     0.205800000000     0.728300000000     0          
H117     H      0.006400000000     0.462300000000     0.607000000000     0          
H118     H      0.825000000000     0.905800000000     0.635300000000     0          
H119     H      0.485700000000     0.308400000000     0.775600000000     0          
H120     H      0.669800000000     0.480400000000     0.927800000000     0          
H121     H      0.207600000000     0.751700000000     0.607000000000     0          
H122     H      0.536100000000     0.817700000000     0.724600000000     0          
H123     H      0.260600000000     0.940100000000     0.907800000000     0          
H124     H      0.757200000000     0.514300000000     0.724400000000     0          
H125     H      0.677900000000     0.498600000000     0.586600000000     0          
H126     H      0.770700000000     0.291400000000     0.928000000000     0          
H127     H      0.242800000000     0.485700000000     0.775600000000     0          
H128     H      0.875500000000     0.260600000000     0.907800000000     0          
C1       C      0.706330000000     0.229200000000     0.894400000000     0          
C2       C      0.711350000000     0.819680000000     0.579530000000     0          
C3       C      0.930550000000     0.697690000000     0.728420000000     0          
C4       C      0.445040000000     0.345550000000     0.618210000000     0          
C5       C      0.481680000000     0.300630000000     0.823930000000     0          
C6       C      0.855750000000     0.202480000000     0.870440000000     0          
C7       C      0.461600000000     0.144250000000     0.629560000000     0          
C8       C      0.178750000000     0.479850000000     0.620620000000     0          
C9       C      0.131370000000     0.388710000000     0.936150000000     0          
C10      C      0.472380000000     0.224020000000     0.825950000000     0          
C11      C      0.527620000000     0.775980000000     0.674050000000     0          
C12      C      0.640040000000     0.309500000000     0.578210000000     0          
C13      C      0.697690000000     0.526290000000     0.728420000000     0          
C14      C      0.851740000000     0.203210000000     0.661840000000     0          
C15      C      0.485830000000     0.147970000000     0.881680000000     0          
C16      C      0.770080000000     0.214800000000     0.881510000000     0          
C17      C      0.468550000000     0.219560000000     0.726360000000     0          
C18      C      0.535120000000     0.834270000000     0.821380000000     0          
C19      C      0.774520000000     0.168690000000     0.862310000000     0          
C20      C      0.808490000000     0.535120000000     0.821380000000     0          
C21      C      0.552290000000     0.660620000000     0.920470000000     0          
C22      C      0.120470000000     0.851740000000     0.661840000000     0          
C23      C      0.165730000000     0.892360000000     0.678620000000     0          
C24      C      0.796790000000     0.528060000000     0.838160000000     0          
C25      C      0.099250000000     0.351080000000     0.784360000000     0          
C26      C      0.761210000000     0.841520000000     0.605000000000     0          
C27      C      0.743390000000     0.364340000000     0.959160000000     0          
C28      C      0.831310000000     0.049900000000     0.637690000000     0          
C29      C      0.241440000000     0.777680000000     0.877140000000     0          
C30      C      0.503070000000     0.942130000000     0.594780000000     0          
C31      C      0.225480000000     0.831310000000     0.637690000000     0          
C32      C      0.277530000000     0.615390000000     0.881680000000     0          
C33      C      0.834910000000     0.529020000000     0.862440000000     0          
C34      C      0.752570000000     0.496930000000     0.905220000000     0          
C35      C      0.761310000000     0.474770000000     0.960340000000     0          
C36      C      0.885130000000     0.538400000000     0.870440000000     0          
C37      C      0.238790000000     0.158480000000     0.895000000000     0          
C38      C      0.921840000000     0.715590000000     0.609800000000     0          
C39      C      0.297760000000     0.504010000000     0.609800000000     0          
C40      C      0.373450000000     0.473760000000     0.810740000000     0          
C41      C      0.554960000000     0.654450000000     0.881790000000     0          
C42      C      0.782420000000     0.813900000000     0.619560000000     0          
C43      C      0.308890000000     0.152760000000     0.932680000000     0          
C44      C      0.531450000000     0.780440000000     0.773640000000     0          
C45      C      0.259070000000     0.516410000000     0.563850000000     0          
C46      C      0.293380000000     0.086410000000     0.784420000000     0          
C47      C      0.820480000000     0.572120000000     0.674050000000     0          
C48      C      0.890870000000     0.445040000000     0.618210000000     0          
C49      C      0.293670000000     0.770800000000     0.605600000000     0          
C50      C      0.660620000000     0.288650000000     0.920470000000     0          
C51      C      0.345550000000     0.791380000000     0.618210000000     0          
C52      C      0.706620000000     0.913590000000     0.715580000000     0          
C53      C      0.222320000000     0.487160000000     0.622860000000     0          
C54      C      0.202480000000     0.885130000000     0.870440000000     0          
C55      C      0.456700000000     0.425220000000     0.619560000000     0          
C56      C      0.889970000000     0.195860000000     0.862440000000     0          
C57      C      0.180320000000     0.552290000000     0.920470000000     0          
C58      C      0.858790000000     0.544330000000     0.829610000000     0          
C59      C      0.676770000000     0.864570000000     0.689120000000     0          
C60      C      0.525230000000     0.840630000000     0.539660000000     0          
C61      C      0.057570000000     0.767810000000     0.795400000000     0          
C62      C      0.278460000000     0.103560000000     0.919660000000     0          
C63      C      0.652770000000     0.518320000000     0.676070000000     0          
C64      C      0.810610000000     0.162410000000     0.854320000000     0          
C65      C      0.007060000000     0.451780000000     0.618490000000     0          
C66      C      0.186100000000     0.543300000000     0.880440000000     0          
C67      C      0.885110000000     0.141210000000     0.670390000000     0          
C68      C      0.868630000000     0.611290000000     0.563850000000     0          
C69      C      0.516410000000     0.868630000000     0.563850000000     0          
C70      C      0.083720000000     0.366080000000     0.928270000000     0          
C71      C      0.800430000000     0.114890000000     0.829610000000     0          
C72      C      0.841520000000     0.448790000000     0.605000000000     0          
C73      C      0.256610000000     0.635660000000     0.540840000000     0          
C74      C      0.114870000000     0.461600000000     0.629560000000     0          
C75      C      0.049900000000     0.444070000000     0.637690000000     0          
C76      C      0.834270000000     0.107640000000     0.821380000000     0          
C77      C      0.444070000000     0.225480000000     0.637690000000     0          
C78      C      0.109130000000     0.554960000000     0.881790000000     0          
C79      C      0.528060000000     0.879530000000     0.838160000000     0          
C80      C      0.504010000000     0.921840000000     0.609800000000     0          
C81      C      0.302310000000     0.473710000000     0.771580000000     0          
C82      C      0.984170000000     0.233160000000     0.726360000000     0          
C83      C      0.135430000000     0.298530000000     0.810880000000     0          
C84      C      0.069450000000     0.302310000000     0.771580000000     0          
C85      C      0.443530000000     0.287400000000     0.567320000000     0          
C86      C      0.529020000000     0.889970000000     0.862440000000     0          
C87      C      0.514170000000     0.852030000000     0.618320000000     0          
C88      C      0.284410000000     0.702240000000     0.890200000000     0          
C89      C      0.165090000000     0.470980000000     0.637560000000     0          
C90      C      0.766840000000     0.531450000000     0.773640000000     0          
C91      C      0.715590000000     0.297760000000     0.609800000000     0          
C92      C      0.177010000000     0.942430000000     0.704600000000     0          
C93      C      0.451780000000     0.229920000000     0.618490000000     0          
C94      C      0.821250000000     0.520150000000     0.879380000000     0          
C95      C      0.913590000000     0.724540000000     0.715580000000     0          
C96      C      0.937510000000     0.238610000000     0.879380000000     0          
C97      C      0.082470000000     0.559600000000     0.894400000000     0          
C98      C      0.772820000000     0.490460000000     0.928270000000     0          
C99      C      0.208620000000     0.109130000000     0.881790000000     0          
C100     C      0.722470000000     0.384610000000     0.618320000000     0          
C101     C      0.023400000000     0.758560000000     0.622860000000     0          
C102     C      0.240850000000     0.069450000000     0.771580000000     0          
C103     C      0.482430000000     0.293380000000     0.784420000000     0          
C104     C      0.110030000000     0.804140000000     0.637560000000     0          
C105     C      0.518320000000     0.699370000000     0.676070000000     0          
C106     C      0.992940000000     0.548220000000     0.881510000000     0          
C107     C      0.976600000000     0.241440000000     0.877140000000     0          
C108     C      0.473710000000     0.240850000000     0.771580000000     0          
C109     C      0.670980000000     0.488570000000     0.898210000000     0          
C110     C      0.247430000000     0.503070000000     0.594780000000     0          
C111     C      0.635660000000     0.825070000000     0.540840000000     0          
C112     C      0.648920000000     0.530530000000     0.715640000000     0          
C113     C      0.574780000000     0.217580000000     0.880440000000     0          
C114     C      0.813900000000     0.456700000000     0.619560000000     0          
C115     C      0.845610000000     0.728870000000     0.674020000000     0          
C116     C      0.168690000000     0.950100000000     0.862310000000     0          
C117     C      0.152760000000     0.556470000000     0.932680000000     0          
C118     C      0.767810000000     0.533230000000     0.795400000000     0          
C119     C      0.900750000000     0.648920000000     0.715640000000     0          
C120     C      0.275460000000     0.482430000000     0.784420000000     0          
C121     C      0.692150000000     0.329020000000     0.601790000000     0          
C122     C      0.712600000000     0.308890000000     0.932680000000     0          
C123     C      0.544330000000     0.800430000000     0.829610000000     0          
C124     C      0.490460000000     0.083720000000     0.928270000000     0          
C125     C      0.686490000000     0.247430000000     0.594780000000     0          
C126     C      0.825070000000     0.446020000000     0.540840000000     0          
C127     C      0.942430000000     0.232190000000     0.704600000000     0          
C128     C      0.471940000000     0.120470000000     0.661840000000     0          
C129     C      0.804140000000     0.165090000000     0.637560000000     0          
C130     C      0.144250000000     0.797520000000     0.629560000000     0          
C131     C      0.232190000000     0.466770000000     0.704600000000     0          
C132     C      0.556470000000     0.712600000000     0.932680000000     0          
C133     C      0.464880000000     0.165730000000     0.678620000000     0          
C134     C      0.699370000000     0.833820000000     0.676070000000     0          
C135     C      0.309500000000     0.516380000000     0.578210000000     0          
C136     C      0.248030000000     0.147720000000     0.810740000000     0          
C137     C      0.690500000000     0.483620000000     0.921790000000     0          
C138     C      0.103560000000     0.560860000000     0.919660000000     0          
C139     C      0.572120000000     0.527620000000     0.674050000000     0          
C140     C      0.479850000000     0.062490000000     0.620620000000     0          
C141     C      0.313510000000     0.752570000000     0.905220000000     0          
C142     C      0.199570000000     0.885110000000     0.670390000000     0          
C143     C      0.751970000000     0.852280000000     0.689260000000     0          
C144     C      0.555930000000     0.774520000000     0.862310000000     0          
C145     C      0.086410000000     0.275460000000     0.784420000000     0          
C146     C      0.728870000000     0.502430000000     0.674020000000     0          
C147     C      0.777680000000     0.512840000000     0.877140000000     0          
C148     C      0.229920000000     0.785200000000     0.618490000000     0          
C149     C      0.633920000000     0.227180000000     0.571730000000     0          
C150     C      0.153080000000     0.359960000000     0.921790000000     0          
C151     C      0.701470000000     0.513670000000     0.689120000000     0          
C152     C      0.538400000000     0.855750000000     0.870440000000     0          
C153     C      0.486330000000     0.323230000000     0.810880000000     0          
C154     C      0.512840000000     0.976600000000     0.877140000000     0          
C155     C      0.148260000000     0.796790000000     0.838160000000     0          
C156     C      0.469470000000     0.217640000000     0.784360000000     0          
C157     C      0.879530000000     0.148260000000     0.838160000000     0          
C158     C      0.502430000000     0.619170000000     0.674020000000     0          
C159     C      0.530530000000     0.782360000000     0.715640000000     0          
C160     C      0.015830000000     0.766840000000     0.773640000000     0          
C161     C      0.466770000000     0.177010000000     0.704600000000     0          
C162     C      0.159370000000     0.445910000000     0.960340000000     0          
C163     C      0.107640000000     0.808490000000     0.821380000000     0          
C164     C      0.615390000000     0.485830000000     0.881680000000     0          
C165     C      0.791380000000     0.890870000000     0.618210000000     0          
C166     C      0.339380000000     0.711350000000     0.579530000000     0          
C167     C      0.553980000000     0.743390000000     0.959160000000     0          
C168     C      0.721540000000     0.896440000000     0.580340000000     0          
C169     C      0.351080000000     0.469470000000     0.784360000000     0          
C170     C      0.619170000000     0.845610000000     0.674020000000     0          
C171     C      0.797520000000     0.114870000000     0.629560000000     0          
C172     C      0.307850000000     0.670980000000     0.898210000000     0          
C173     C      0.495990000000     0.078160000000     0.890200000000     0          
C174     C      0.388710000000     0.740930000000     0.936150000000     0          
C175     C      0.224020000000     0.179520000000     0.825950000000     0          
C176     C      0.298530000000     0.486330000000     0.810880000000     0          
C177     C      0.833820000000     0.652770000000     0.676070000000     0          
C178     C      0.323230000000     0.135430000000     0.810880000000     0          
C179     C      0.446020000000     0.256610000000     0.540840000000     0          
C180     C      0.474770000000     0.159370000000     0.960340000000     0          
C181     C      0.917530000000     0.440400000000     0.605600000000     0          
C182     C      0.551210000000     0.631520000000     0.895000000000     0          
C183     C      0.078160000000     0.284410000000     0.890200000000     0          
C184     C      0.950100000000     0.555930000000     0.862310000000     0          
C185     C      0.174930000000     0.553980000000     0.959160000000     0          
C186     C      0.427880000000     0.472380000000     0.825950000000     0          
C187     C      0.758560000000     0.222320000000     0.622860000000     0          
C188     C      0.548220000000     0.770080000000     0.881510000000     0          
C189     C      0.147970000000     0.277530000000     0.881680000000     0          
C190     C      0.141210000000     0.455670000000     0.670390000000     0          
C191     C      0.822990000000     0.057570000000     0.795400000000     0          
C192     C      0.219560000000     0.984170000000     0.726360000000     0          
C193     C      0.509540000000     0.916280000000     0.571730000000     0          
C194     C      0.702240000000     0.495990000000     0.890200000000     0          
C195     C      0.125440000000     0.307850000000     0.898210000000     0          
C196     C      0.496930000000     0.057870000000     0.905220000000     0          
C197     C      0.511430000000     0.874560000000     0.601790000000     0          
C198     C      0.057870000000     0.313510000000     0.905220000000     0          
C199     C      0.488570000000     0.125440000000     0.898210000000     0          
C200     C      0.440400000000     0.293670000000     0.605600000000     0          
C201     C      0.497570000000     0.380830000000     0.825980000000     0          
C202     C      0.217580000000     0.186100000000     0.880440000000     0          
C203     C      0.162410000000     0.898030000000     0.854320000000     0          
C204     C      0.238610000000     0.821250000000     0.879380000000     0          
C205     C      0.654450000000     0.208620000000     0.881790000000     0          
C206     C      0.846920000000     0.640040000000     0.578210000000     0          
C207     C      0.425220000000     0.782420000000     0.619560000000     0          
C208     C      0.626550000000     0.526240000000     0.689260000000     0          
C209     C      0.229200000000     0.082470000000     0.894400000000     0          
C210     C      0.770800000000     0.917530000000     0.605600000000     0          
C211     C      0.761390000000     0.178750000000     0.620620000000     0          
C212     C      0.487160000000     0.023400000000     0.622860000000     0          
C213     C      0.364340000000     0.174930000000     0.959160000000     0          
C214     C      0.455670000000     0.199570000000     0.670390000000     0          
C215     C      0.546230000000     0.810610000000     0.854320000000     0          
C216     C      0.264240000000     0.721540000000     0.580340000000     0          
C217     C      0.366080000000     0.772820000000     0.928270000000     0          
C218     C      0.847240000000     0.443530000000     0.567320000000     0          
C219     C      0.483590000000     0.131370000000     0.936150000000     0          
C220     C      0.347230000000     0.481680000000     0.823930000000     0          
C221     C      0.158480000000     0.551210000000     0.895000000000     0          
C222     C      0.203210000000     0.471940000000     0.661840000000     0          
C223     C      0.516380000000     0.846920000000     0.578210000000     0          
C224     C      0.837590000000     0.101970000000     0.645680000000     0          
C225     C      0.445910000000     0.761310000000     0.960340000000     0          
C226     C      0.775980000000     0.820480000000     0.674050000000     0          
C227     C      0.520150000000     0.937510000000     0.879380000000     0          
C228     C      0.533230000000     0.822990000000     0.795400000000     0          
C229     C      0.483620000000     0.153080000000     0.921790000000     0          
C230     C      0.942130000000     0.686490000000     0.594780000000     0          
C231     C      0.101970000000     0.453770000000     0.645680000000     0          
C232     C      0.380830000000     0.154390000000     0.825980000000     0          
C233     C      0.359960000000     0.690500000000     0.921790000000     0          
C234     C      0.892360000000     0.191510000000     0.678620000000     0          
C235     C      0.470980000000     0.110030000000     0.637560000000     0          
C236     C      0.554090000000     0.238690000000     0.539660000000     0          
C237     C      0.840630000000     0.554090000000     0.539660000000     0          
C238     C      0.898030000000     0.546230000000     0.854320000000     0          
C239     C      0.233160000000     0.468550000000     0.726360000000     0          
C240     C      0.147720000000     0.373450000000     0.810740000000     0          
C241     C      0.195860000000     0.834910000000     0.862440000000     0          
C242     C      0.384610000000     0.514170000000     0.618320000000     0          
C243     C      0.517570000000     0.706620000000     0.715580000000     0          
C244     C      0.217640000000     0.099250000000     0.784360000000     0          
C245     C      0.559600000000     0.706330000000     0.894400000000     0          
C246     C      0.271130000000     0.497570000000     0.825980000000     0          
C247     C      0.368480000000     0.761210000000     0.605000000000     0          
C248     C      0.439140000000     0.264240000000     0.580340000000     0          
C249     C      0.166180000000     0.347230000000     0.823930000000     0          
C250     C      0.735760000000     0.278460000000     0.919660000000     0          
C251     C      0.329020000000     0.511430000000     0.601790000000     0          
C252     C      0.526240000000     0.751970000000     0.689260000000     0          
C253     C      0.189390000000     0.837590000000     0.645680000000     0          
C254     C      0.062490000000     0.761390000000     0.620620000000     0          
C255     C      0.214800000000     0.992940000000     0.881510000000     0          
C256     C      0.691110000000     0.847240000000     0.567320000000     0          
C257     C      0.227180000000     0.509540000000     0.571730000000     0          
C258     C      0.473760000000     0.248030000000     0.810740000000     0          
C259     C      0.526290000000     0.759150000000     0.728420000000     0          
C260     C      0.288650000000     0.180320000000     0.920470000000     0          
C261     C      0.852030000000     0.722470000000     0.618320000000     0          
C262     C      0.780440000000     0.015830000000     0.773640000000     0          
C263     C      0.191510000000     0.464880000000     0.678620000000     0          
C264     C      0.896440000000     0.439140000000     0.580340000000     0          
C265     C      0.874560000000     0.692150000000     0.601790000000     0          
C266     C      0.238690000000     0.525230000000     0.539660000000     0          
C267     C      0.759150000000     0.930550000000     0.728420000000     0          
C268     C      0.819680000000     0.447710000000     0.579530000000     0          
C269     C      0.611290000000     0.259070000000     0.563850000000     0          
C270     C      0.154390000000     0.271130000000     0.825980000000     0          
C271     C      0.852280000000     0.626550000000     0.689260000000     0          
C272     C      0.448790000000     0.368480000000     0.605000000000     0          
C273     C      0.287400000000     0.691110000000     0.567320000000     0          
C274     C      0.782360000000     0.900750000000     0.715640000000     0          
C275     C      0.631520000000     0.238790000000     0.895000000000     0          
C276     C      0.543300000000     0.574780000000     0.880440000000     0          
C277     C      0.114890000000     0.858790000000     0.829610000000     0          
C278     C      0.560860000000     0.735760000000     0.919660000000     0          
C279     C      0.740930000000     0.483590000000     0.936150000000     0          
C280     C      0.453770000000     0.189390000000     0.645680000000     0          
C281     C      0.785200000000     0.007060000000     0.618490000000     0          
C282     C      0.179520000000     0.427880000000     0.825950000000     0          
C283     C      0.916280000000     0.633920000000     0.571730000000     0          
C284     C      0.513670000000     0.676770000000     0.689120000000     0          
C285     C      0.864570000000     0.701470000000     0.689120000000     0          
C286     C      0.724540000000     0.517570000000     0.715580000000     0          
C287     C      0.300630000000     0.166180000000     0.823930000000     0          
C288     C      0.447710000000     0.339380000000     0.579530000000     0          
N1       N      0.314310000000     0.836790000000     0.915510000000     0          
N2       N      0.798760000000     0.968230000000     0.619970000000     0          
N3       N      0.575000000000     0.705940000000     0.860680000000     0          
N4       N      0.522550000000     0.949240000000     0.903250000000     0          
N5       N      0.213600000000     0.493240000000     0.601880000000     0          
N6       N      0.716050000000     0.142740000000     0.596750000000     0          
N7       N      0.990160000000     0.710520000000     0.601880000000     0          
N8       N      0.047460000000     0.721400000000     0.789960000000     0          
N9       N      0.009840000000     0.289480000000     0.898120000000     0          
N10      N      0.037500000000     0.429000000000     0.651250000000     0          
N11      N      0.308460000000     0.471600000000     0.735200000000     0          
N12      N      0.005770000000     0.685690000000     0.584490000000     0          
N13      N      0.728290000000     0.201240000000     0.880030000000     0          
N14      N      0.916400000000     0.526100000000     0.890200000000     0          
N15      N      0.691540000000     0.528400000000     0.764800000000     0          
N16      N      0.209220000000     0.018510000000     0.744510000000     0          
N17      N      0.685690000000     0.163210000000     0.584490000000     0          
N18      N      0.015420000000     0.575000000000     0.860680000000     0          
N19      N      0.271710000000     0.798760000000     0.619970000000     0          
N20      N      0.981490000000     0.720200000000     0.755490000000     0          
N21      N      0.473900000000     0.136000000000     0.609800000000     0          
N22      N      0.467540000000     0.141480000000     0.710040000000     0          
N23      N      0.529490000000     0.790780000000     0.755490000000     0          
N24      N      0.962500000000     0.571000000000     0.848750000000     0          
N25      N      0.283950000000     0.857260000000     0.903250000000     0          
N26      N      0.429000000000     0.265000000000     0.651250000000     0          
N27      N      0.516710000000     0.994230000000     0.915510000000     0          
N28      N      0.050760000000     0.716050000000     0.596750000000     0          
N29      N      0.279800000000     0.470510000000     0.744510000000     0          
N30      N      0.477450000000     0.050760000000     0.596750000000     0          
N31      N      0.984580000000     0.425000000000     0.639320000000     0          
N32      N      0.294060000000     0.853640000000     0.639320000000     0          
N33      N      0.571000000000     0.735000000000     0.848750000000     0          
N34      N      0.994230000000     0.314310000000     0.915510000000     0          
N35      N      0.864000000000     0.254300000000     0.890200000000     0          
N36      N      0.493240000000     0.990160000000     0.601880000000     0          
N37      N      0.836790000000     0.516710000000     0.915510000000     0          
N38      N      0.786400000000     0.506760000000     0.898120000000     0          
N39      N      0.278600000000     0.467540000000     0.710040000000     0          
N40      N      0.705940000000     0.146360000000     0.860680000000     0          
N41      N      0.141480000000     0.952540000000     0.710040000000     0          
N42      N      0.558820000000     0.728290000000     0.880030000000     0          
N43      N      0.720200000000     0.529490000000     0.755490000000     0          
N44      N      0.721400000000     0.532460000000     0.789960000000     0          
N45      N      0.790780000000     0.981490000000     0.755490000000     0          
N46      N      0.838060000000     0.001200000000     0.764800000000     0          
N47      N      0.526100000000     0.864000000000     0.890200000000     0          
N48      N      0.710520000000     0.213600000000     0.601880000000     0          
N49      N      0.001200000000     0.691540000000     0.764800000000     0          
N50      N      0.745700000000     0.083600000000     0.609800000000     0          
N51      N      0.735000000000     0.126500000000     0.848750000000     0          
N52      N      0.506760000000     0.009840000000     0.898120000000     0          
N53      N      0.873500000000     0.037500000000     0.651250000000     0          
N54      N      0.483290000000     0.005770000000     0.584490000000     0          
N55      N      0.853640000000     0.984580000000     0.639320000000     0          
N56      N      0.126500000000     0.962500000000     0.848750000000     0          
N57      N      0.470510000000     0.209220000000     0.744510000000     0          
N58      N      0.265000000000     0.873500000000     0.651250000000     0          
N59      N      0.949240000000     0.283950000000     0.903250000000     0          
N60      N      0.142740000000     0.477450000000     0.596750000000     0          
N61      N      0.163210000000     0.483290000000     0.584490000000     0          
N62      N      0.254300000000     0.916400000000     0.890200000000     0          
N63      N      0.136000000000     0.745700000000     0.609800000000     0          
N64      N      0.018510000000     0.279800000000     0.744510000000     0          
N65      N      0.532460000000     0.858520000000     0.789960000000     0          
N66      N      0.998800000000     0.308460000000     0.735200000000     0          
N67      N      0.528400000000     0.838060000000     0.764800000000     0          
N68      N      0.471600000000     0.161940000000     0.735200000000     0          
N69      N      0.968230000000     0.441180000000     0.619970000000     0          
N70      N      0.441180000000     0.271710000000     0.619970000000     0          
N71      N      0.425000000000     0.294060000000     0.639320000000     0          
N72      N      0.031770000000     0.558820000000     0.880030000000     0          
N73      N      0.201240000000     0.031770000000     0.880030000000     0          
N74      N      0.161940000000     0.998800000000     0.735200000000     0          
N75      N      0.146360000000     0.015420000000     0.860680000000     0          
N76      N      0.952540000000     0.278600000000     0.710040000000     0          
N77      N      0.858520000000     0.047460000000     0.789960000000     0          
N78      N      0.857260000000     0.522550000000     0.903250000000     0          
N79      N      0.289480000000     0.786400000000     0.898120000000     0          
N80      N      0.083600000000     0.473900000000     0.609800000000     0          
O1       O      0.476170000000     0.205300000000     0.969240000000     0          
O2       O      0.229980000000     0.538620000000     0.892900000000     0          
O3       O      0.803910000000     0.467520000000     0.969410000000     0          
O4       O      0.770020000000     0.461380000000     0.607100000000     0          
O5       O      0.597170000000     0.483470000000     0.858210000000     0          
O6       O      0.229350000000     0.506190000000     0.814720000000     0          
O7       O      0.556970000000     0.789800000000     0.968790000000     0          
O8       O      0.210200000000     0.619390000000     0.531210000000     0          
O9       O      0.548030000000     0.719580000000     0.969040000000     0          
O10      O      0.380610000000     0.147780000000     0.968790000000     0          
O11      O      0.506190000000     0.400090000000     0.814720000000     0          
O12      O      0.493810000000     0.599910000000     0.685280000000     0          
O13      O      0.667650000000     0.485040000000     0.592130000000     0          
O14      O      0.767050000000     0.402830000000     0.641790000000     0          
O15      O      0.523620000000     0.746580000000     0.650200000000     0          
O16      O      0.550350000000     0.172940000000     0.856810000000     0          
O17      O      0.467520000000     0.134910000000     0.969410000000     0          
O18      O      0.549630000000     0.532170000000     0.686350000000     0          
O19      O      0.462310000000     0.733180000000     0.969240000000     0          
O20      O      0.516610000000     0.699220000000     0.592130000000     0          
O21      O      0.827060000000     0.836730000000     0.643190000000     0          
O22      O      0.609950000000     0.781500000000     0.530960000000     0          
O23      O      0.232950000000     0.597170000000     0.858210000000     0          
O24      O      0.619390000000     0.852220000000     0.531210000000     0          
O25      O      0.555820000000     0.247180000000     0.892900000000     0          
O26      O      0.483470000000     0.119250000000     0.858210000000     0          
O27      O      0.266820000000     0.523830000000     0.530760000000     0          
O28      O      0.800060000000     0.707290000000     0.651010000000     0          
O29      O      0.470430000000     0.530460000000     0.700910000000     0          
O30      O      0.446180000000     0.476380000000     0.849800000000     0          
O31      O      0.530460000000     0.931390000000     0.700910000000     0          
O32      O      0.871360000000     0.470430000000     0.700910000000     0          
O33      O      0.119250000000     0.232950000000     0.858210000000     0          
O34      O      0.746580000000     0.776780000000     0.650200000000     0          
O35      O      0.443030000000     0.210200000000     0.531210000000     0          
O36      O      0.449650000000     0.827060000000     0.643190000000     0          
O37      O      0.253420000000     0.223220000000     0.849800000000     0          
O38      O      0.483390000000     0.300780000000     0.907870000000     0          
O39      O      0.590960000000     0.485070000000     0.892300000000     0          
O40      O      0.292710000000     0.498040000000     0.848990000000     0          
O41      O      0.700470000000     0.409040000000     0.607700000000     0          
O42      O      0.205300000000     0.462310000000     0.969240000000     0          
O43      O      0.068610000000     0.128640000000     0.799090000000     0          
O44      O      0.840530000000     0.549630000000     0.686350000000     0          
O45      O      0.789800000000     0.380610000000     0.968790000000     0          
O46      O      0.332350000000     0.514960000000     0.907870000000     0          
O47      O      0.299530000000     0.590960000000     0.892300000000     0          
O48      O      0.752820000000     0.770020000000     0.607100000000     0          
O49      O      0.176930000000     0.159470000000     0.813650000000     0          
O50      O      0.223220000000     0.446180000000     0.849800000000     0          
O51      O      0.444180000000     0.752820000000     0.607100000000     0          
O52      O      0.770650000000     0.493810000000     0.685280000000     0          
O53      O      0.514930000000     0.806360000000     0.607700000000     0          
O54      O      0.459320000000     0.449650000000     0.643190000000     0          
O55      O      0.733180000000     0.476170000000     0.969240000000     0          
O56      O      0.553820000000     0.523620000000     0.650200000000     0          
O57      O      0.134910000000     0.471300000000     0.969410000000     0          
O58      O      0.163270000000     0.540680000000     0.856810000000     0          
O59      O      0.540680000000     0.550350000000     0.856810000000     0          
O60      O      0.538620000000     0.555820000000     0.892900000000     0          
O61      O      0.781500000000     0.451970000000     0.530960000000     0          
O62      O      0.199940000000     0.292710000000     0.848990000000     0          
O63      O      0.450370000000     0.467830000000     0.813650000000     0          
O64      O      0.836730000000     0.459320000000     0.643190000000     0          
O65      O      0.280420000000     0.609950000000     0.530960000000     0          
O66      O      0.806360000000     0.700470000000     0.607700000000     0          
O67      O      0.471300000000     0.803910000000     0.969410000000     0          
O68      O      0.400090000000     0.123250000000     0.814720000000     0          
O69      O      0.402830000000     0.516530000000     0.641790000000     0          
O70      O      0.476380000000     0.253420000000     0.849800000000     0          
O71      O      0.516530000000     0.880750000000     0.641790000000     0          
O72      O      0.528700000000     0.196090000000     0.530590000000     0          
O73      O      0.405270000000     0.199940000000     0.848990000000     0          
O74      O      0.196090000000     0.532480000000     0.530590000000     0          
O75      O      0.537690000000     0.266820000000     0.530760000000     0          
O76      O      0.469540000000     0.068610000000     0.799090000000     0          
O77      O      0.193640000000     0.299530000000     0.892300000000     0          
O78      O      0.523830000000     0.794700000000     0.530760000000     0          
O79      O      0.865090000000     0.528700000000     0.530590000000     0          
O80      O      0.599910000000     0.876750000000     0.685280000000     0          
O81      O      0.876750000000     0.770650000000     0.685280000000     0          
O82      O      0.794700000000     0.537690000000     0.530760000000     0          
O83      O      0.776780000000     0.553820000000     0.650200000000     0          
O84      O      0.529570000000     0.469540000000     0.799090000000     0          
O85      O      0.532170000000     0.823070000000     0.686350000000     0          
O86      O      0.823070000000     0.840530000000     0.686350000000     0          
O87      O      0.498040000000     0.405270000000     0.848990000000     0          
O88      O      0.390050000000     0.218500000000     0.969040000000     0          
O89      O      0.159470000000     0.450370000000     0.813650000000     0          
O90      O      0.719580000000     0.390050000000     0.969040000000     0          
O91      O      0.128640000000     0.529570000000     0.799090000000     0          
O92      O      0.300780000000     0.332350000000     0.907870000000     0          
O93      O      0.247180000000     0.229980000000     0.892900000000     0          
O94      O      0.409040000000     0.514930000000     0.607700000000     0          
O95      O      0.852220000000     0.443030000000     0.531210000000     0          
O96      O      0.147780000000     0.556970000000     0.968790000000     0          
O97      O      0.485070000000     0.193640000000     0.892300000000     0          
O98      O      0.218500000000     0.548030000000     0.969040000000     0          
O99      O      0.123250000000     0.229350000000     0.814720000000     0          
O100     O      0.880750000000     0.767050000000     0.641790000000     0          
O101     O      0.501960000000     0.594730000000     0.651010000000     0          
O102     O      0.514960000000     0.483390000000     0.907870000000     0          
O103     O      0.461380000000     0.444180000000     0.607100000000     0          
O104     O      0.451970000000     0.280420000000     0.530960000000     0          
O105     O      0.931390000000     0.871360000000     0.700910000000     0          
O106     O      0.707290000000     0.501960000000     0.651010000000     0          
O107     O      0.172940000000     0.163270000000     0.856810000000     0          
O108     O      0.467830000000     0.176930000000     0.813650000000     0          
O109     O      0.485040000000     0.516610000000     0.592130000000     0          
O110     O      0.699220000000     0.667650000000     0.592130000000     0          
O111     O      0.532480000000     0.865090000000     0.530590000000     0          
O112     O      0.594730000000     0.800060000000     0.651010000000     0          


