@<TRIPOS>MOLECULE
*****
 81 111 0 0 0
SMALL
GASTEIGER

@<TRIPOS>ATOM
      1 C           3.3639   -1.9958    0.3865 C.ar    1  UNL1        0.0000
      2 C           3.6606   -0.5728    0.4352 C.ar    1  UNL1       -0.0000
      3 C           3.2408    0.1924    1.5299 C.ar    1  UNL1       -0.0000
      4 C           2.6558   -2.6001    1.4324 C.ar    1  UNL1        0.0000
      5 C           3.0615   -2.3472   -0.9941 C.ar    1  UNL1        0.0000
      6 C           3.5289   -0.0443   -0.9155 C.ar    1  UNL1       -0.0000
      7 C           2.6863    1.5193    1.3192 C.ar    1  UNL1       -0.0000
      8 C           2.4922   -0.4343    2.6056 C.ar    1  UNL1       -0.0000
      9 C           1.6195   -3.5784    1.1397 C.ar    1  UNL1        0.0000
     10 C           2.2096   -1.8010    2.5634 C.ar    1  UNL1       -0.0000
     11 C           2.0673   -3.2895   -1.2747 C.ar    1  UNL1        0.0000
     12 C           3.1625   -1.1381   -1.7968 C.ar    1  UNL1       -0.0000
     13 C           2.9653    1.2189   -1.1122 C.ar    1  UNL1       -0.0000
     14 C           1.5828    1.7092    2.2462 C.ar    1  UNL1       -0.0003
     15 C           2.5521    2.0083    0.0218 C.ar    1  UNL1       -0.0003
     16 C           1.4658    0.5054    3.0326 C.ar    1  UNL1       -0.0000
     17 C           1.3337   -3.9193   -0.1866 C.ar    1  UNL1        0.0000
     18 C           0.5345   -3.3857    2.0914 C.ar    1  UNL1        0.0000
     19 C           0.8950   -2.2804    2.9659 C.ar    1  UNL1        0.0000
     20 C           1.1379   -3.0622   -2.3717 C.ar    1  UNL1        0.0000
     21 C           2.2599   -0.9097   -2.8393 C.ar    1  UNL1       -0.0000
     22 C           2.0093    1.4651   -2.1753 C.ar    1  UNL1       -0.0000
     23 C           0.4673    2.4772    1.8780 C.ar    1  UNL1       -0.0027
     24 C           1.4196    2.8256   -0.3434 C.ar    1  UNL1       -0.0027
     25 C           0.2017    0.0557    3.3997 C.ar    1  UNL1       -0.0000
     26 C          -0.0472   -4.0872   -0.6137 C.ar    1  UNL1        0.0000
     27 C          -0.7931   -3.5470    1.6804 C.ar    1  UNL1        0.0000
     28 C          -0.0846   -1.3720    3.3826 C.ar    1  UNL1       -0.0000
     29 C          -0.1672   -3.5616   -1.9655 C.ar    1  UNL1        0.0000
     30 C           1.2325   -1.8944   -3.1382 C.ar    1  UNL1        0.0000
     31 C           1.6803    0.4138   -3.0317 C.ar    1  UNL1       -0.0000
     32 C           1.0073    2.4334   -1.7027 C.ar    1  UNL1       -0.0003
     33 C           0.5756    3.2958    0.6690 C.ar    1  UNL1        0.0012
     34 C          -0.8866    1.9665    2.1893 C.ar    1  UNL1       -0.0005
     35 C          -0.9803    0.7831    2.9611 C.ar    1  UNL1       -0.0000
     36 C          -1.0899   -3.9090    0.3016 C.ar    1  UNL1        0.0000
     37 C          -1.8125   -2.6114    2.1291 C.ar    1  UNL1        0.0000
     38 C          -1.4596   -1.5396    2.9575 C.ar    1  UNL1       -0.0000
     39 C          -1.3271   -2.8826   -2.3513 C.ar    1  UNL1        0.0000
     40 C           0.0267   -1.1809   -3.5292 C.ar    1  UNL1       -0.0000
     41 C           0.3069    0.2473   -3.4564 C.ar    1  UNL1       -0.0000
     42 C          -0.3371    2.2745   -2.1207 C.ar    1  UNL1       -0.0003
     43 C          -1.5038    3.0409    0.0306 C.ar    1  UNL1        0.0012
     44 C          -1.9078    2.1838    1.1433 C.ar    1  UNL1       -0.0027
     45 C          -2.0131   -0.2148    2.7169 C.ar    1  UNL1       -0.0000
     46 C          -2.2981   -3.2046   -0.0995 C.ar    1  UNL1        0.0000
     47 C          -2.7466   -2.4064    1.0317 C.ar    1  UNL1       -0.0000
     48 C          -2.4151   -2.7010   -1.4006 C.ar    1  UNL1        0.0000
     49 C          -1.2269   -1.6732   -3.1545 C.ar    1  UNL1       -0.0000
     50 C          -0.6651    1.1412   -3.0032 C.ar    1  UNL1       -0.0000
     51 C          -1.5141    2.4710   -1.2489 C.ar    1  UNL1       -0.0027
     52 C          -2.8373    1.1691    0.8789 C.ar    1  UNL1       -0.0003
     53 C          -2.9173   -0.0307    1.6770 C.ar    1  UNL1       -0.0000
     54 C          -3.2966   -1.1410    0.8162 C.ar    1  UNL1       -0.0000
     55 C          -2.9915   -1.3839   -1.6220 C.ar    1  UNL1       -0.0000
     56 C          -2.2503   -0.7490   -2.7022 C.ar    1  UNL1       -0.0000
     57 C          -1.9674    0.6183   -2.6369 C.ar    1  UNL1       -0.0000
     58 C          -2.4435    1.4010   -1.5237 C.ar    1  UNL1       -0.0003
     59 C          -3.1636    0.8057   -0.4896 C.ar    1  UNL1       -0.0000
     60 C          -3.4339   -0.6216   -0.5342 C.ar    1  UNL1       -0.0000
     61 H           1.0108    5.7059    4.3944 H       1  UNL1        0.0262
     62 C          -0.0250    6.0792    4.3789 C.3     1  UNL1       -0.0306
     63 H          -0.1420    6.8071    5.1980 H       1  UNL1        0.0262
     64 H           0.3179    7.6082    2.8671 H       1  UNL1        0.0694
     65 C          -0.3414    6.7485    3.0527 C.3     1  UNL1        0.0897
     66 O          -0.0938    5.8612    1.9380 O.3     1  UNL1       -0.4637
     67 H          -0.7088    5.2386    4.5689 H       1  UNL1        0.0262
     68 C          -1.0659    5.0139    1.5830 C.2     1  UNL1        0.3333
     69 C          -0.5937    4.1820    0.3649 C.3     1  UNL1        0.2156
     70 O          -2.1437    4.9339    2.1085 O.2     1  UNL1       -0.2488
     71 H          -1.3898    7.0799    3.0126 H       1  UNL1        0.0694
     72 C          -0.3758    5.2015   -0.7748 C.2     1  UNL1        0.3333
     73 H          -3.6227    6.4643   -2.5956 H       1  UNL1        0.0262
     74 O          -1.5460    5.7718   -1.0824 O.3     1  UNL1       -0.4637
     75 H          -1.1274    6.3389   -3.0339 H       1  UNL1        0.0694
     76 O           0.6759    5.4784   -1.2848 O.2     1  UNL1       -0.2488
     77 C          -1.5340    6.7842   -2.1116 C.3     1  UNL1        0.0897
     78 C          -2.9519    7.2829   -2.2922 C.3     1  UNL1       -0.0306
     79 H          -2.9771    8.0587   -3.0735 H       1  UNL1        0.0262
     80 H          -3.3400    7.7187   -1.3586 H       1  UNL1        0.0262
     81 H          -0.8438    7.5871   -1.8057 H       1  UNL1        0.0694
@<TRIPOS>BOND
     1    40    41   ar
     2    40    49   ar
     3    40    30   ar
     4    41    31   ar
     5    41    50   ar
     6    49    56   ar
     7    49    39   ar
     8    30    21   ar
     9    30    20   ar
    10    79    78    1
    11    75    77    1
    12    31    21   ar
    13    31    22   ar
    14    50    57   ar
    15    50    42   ar
    16    21    12   ar
    17    56    57   ar
    18    56    55   ar
    19    57    58   ar
    20    73    78    1
    21    20    29   ar
    22    20    11   ar
    23    39    29   ar
    24    39    48   ar
    25    78    77    1
    26    78    80    1
    27    22    32   ar
    28    22    13   ar
    29    42    32   ar
    30    42    51   ar
    31    77    81    1
    32    77    74    1
    33    29    26   ar
    34    12     5   ar
    35    12     6   ar
    36    32    24   ar
    37    55    48   ar
    38    55    60   ar
    39    58    51   ar
    40    58    59   ar
    41    48    46   ar
    42    76    72    2
    43    11     5   ar
    44    11    17   ar
    45    51    43   ar
    46    13     6   ar
    47    13    15   ar
    48    74    72    1
    49     5     1   ar
    50     6     2   ar
    51    72    69    1
    52    26    17   ar
    53    26    36   ar
    54    60    59   ar
    55    60    54   ar
    56    59    52   ar
    57    24    15   ar
    58    24    33   ar
    59    17     9   ar
    60    46    36   ar
    61    46    47   ar
    62    15     7   ar
    63    43    69    1
    64    43    44   ar
    65    36    27   ar
    66    69    33    1
    67    69    68    1
    68     1     2   ar
    69     1     4   ar
    70     2     3   ar
    71    33    23   ar
    72    54    47   ar
    73    54    53   ar
    74    52    44   ar
    75    52    53   ar
    76    47    37   ar
    77     9     4   ar
    78     9    18   ar
    79    44    34   ar
    80     7     3   ar
    81     7    14   ar
    82     4    10   ar
    83     3     8   ar
    84    68    66    1
    85    68    70    2
    86    53    45   ar
    87    27    18   ar
    88    27    37   ar
    89    23    34   ar
    90    23    14   ar
    91    66    65    1
    92    18    19   ar
    93    37    38   ar
    94    34    35   ar
    95    14    16   ar
    96    10     8   ar
    97    10    19   ar
    98     8    16   ar
    99    45    38   ar
   100    45    35   ar
   101    64    65    1
   102    38    28   ar
   103    35    25   ar
   104    19    28   ar
   105    71    65    1
   106    16    25   ar
   107    65    62    1
   108    28    25   ar
   109    62    61    1
   110    62    67    1
   111    62    63    1
