data_XADDEN_manual

_audit_creation_method RASPA-1.0
_audit_creation_date 2025-1-24
_audit_author_name ''

_cell_length_a    37.302
_cell_length_b    37.302
_cell_length_c    37.302
_cell_angle_alpha 60
_cell_angle_beta  60
_cell_angle_gamma 60
_cell_volume      36701.3

_symmetry_cell_setting          triclinic
_symmetry_space_group_name_Hall 'P 1'
_symmetry_space_group_name_H-M  'P 1'
_symmetry_Int_Tables_number     1

_symmetry_equiv_pos_as_xyz 'x,y,z'

loop_
_atom_site_label
_atom_site_type_symbol
_atom_site_fract_x
_atom_site_fract_y
_atom_site_fract_z
_atom_site_charge
Cu       Cu     0.034930000000     0.250000000000     0.250000000000     0          
Cu       Cu     0.250000000000     0.034930000000     0.465070000000     0          
Cu       Cu     0.250000000000     0.465070000000     0.034930000000     0          
Cu       Cu     0.465070000000     0.250000000000     0.250000000000     0          
Cu       Cu     0.034930000000     0.250000000000     0.465070000000     0          
Cu       Cu     0.250000000000     0.465070000000     0.250000000000     0          
Cu       Cu     0.250000000000     0.034930000000     0.250000000000     0          
Cu       Cu     0.465070000000     0.250000000000     0.034930000000     0          
Cu       Cu     0.034930000000     0.465070000000     0.250000000000     0          
Cu       Cu     0.250000000000     0.250000000000     0.034930000000     0          
Cu       Cu     0.250000000000     0.250000000000     0.465070000000     0          
Cu       Cu     0.465070000000     0.034930000000     0.250000000000     0          
H        H      0.386300000000     0.233700000000     0.386300000000     0          
H        H      0.233700000000     0.386300000000     0.493700000000     0          
H        H      0.386300000000     0.493700000000     0.386300000000     0          
H        H      0.493700000000     0.386300000000     0.233700000000     0          
H        H      0.386300000000     0.386300000000     0.493700000000     0          
H        H      0.233700000000     0.493700000000     0.386300000000     0          
H        H      0.386300000000     0.386300000000     0.233700000000     0          
H        H      0.493700000000     0.233700000000     0.386300000000     0          
H        H      0.386300000000     0.493700000000     0.233700000000     0          
H        H      0.233700000000     0.386300000000     0.386300000000     0          
H        H      0.386300000000     0.233700000000     0.493700000000     0          
H        H      0.493700000000     0.386300000000     0.386300000000     0          
H        H      0.266300000000     0.113700000000     0.113700000000     0          
H        H      0.113700000000     0.266300000000     0.006300000000     0          
H        H      0.006300000000     0.113700000000     0.113700000000     0          
H        H      0.113700000000     0.006300000000     0.266300000000     0          
H        H      0.113700000000     0.113700000000     0.006300000000     0          
H        H      0.006300000000     0.266300000000     0.113700000000     0          
H        H      0.113700000000     0.113700000000     0.266300000000     0          
H        H      0.266300000000     0.006300000000     0.113700000000     0          
H        H      0.006300000000     0.113700000000     0.266300000000     0          
H        H      0.113700000000     0.266300000000     0.113700000000     0          
H        H      0.266300000000     0.113700000000     0.006300000000     0          
H        H      0.113700000000     0.006300000000     0.113700000000     0          
C        C      0.465450000000     0.237130000000     0.331970000000     0          
C        C      0.443700000000     0.233560000000     0.379040000000     0          
C        C      0.237130000000     0.465450000000     0.465450000000     0          
C        C      0.233560000000     0.443700000000     0.443700000000     0          
C        C      0.331970000000     0.465450000000     0.465450000000     0          
C        C      0.379040000000     0.443700000000     0.443700000000     0          
C        C      0.465450000000     0.331970000000     0.237130000000     0          
C        C      0.443700000000     0.379040000000     0.233560000000     0          
C        C      0.465450000000     0.331970000000     0.465450000000     0          
C        C      0.443700000000     0.379040000000     0.443700000000     0          
C        C      0.237130000000     0.465450000000     0.331970000000     0          
C        C      0.233560000000     0.443700000000     0.379040000000     0          
C        C      0.331970000000     0.465450000000     0.237130000000     0          
C        C      0.379040000000     0.443700000000     0.233560000000     0          
C        C      0.465450000000     0.237130000000     0.465450000000     0          
C        C      0.443700000000     0.233560000000     0.443700000000     0          
C        C      0.465450000000     0.465450000000     0.237130000000     0          
C        C      0.443700000000     0.443700000000     0.233560000000     0          
C        C      0.237130000000     0.331970000000     0.465450000000     0          
C        C      0.233560000000     0.379040000000     0.443700000000     0          
C        C      0.331970000000     0.237130000000     0.465450000000     0          
C        C      0.379040000000     0.233560000000     0.443700000000     0          
C        C      0.465450000000     0.465450000000     0.331970000000     0          
C        C      0.443700000000     0.443700000000     0.379040000000     0          
C        C      0.262870000000     0.034550000000     0.168030000000     0          
C        C      0.266440000000     0.056300000000     0.120960000000     0          
C        C      0.034550000000     0.262870000000     0.034550000000     0          
C        C      0.056300000000     0.266440000000     0.056300000000     0          
C        C      0.034550000000     0.168030000000     0.034550000000     0          
C        C      0.056300000000     0.120960000000     0.056300000000     0          
C        C      0.168030000000     0.034550000000     0.262870000000     0          
C        C      0.120960000000     0.056300000000     0.266440000000     0          
C        C      0.168030000000     0.034550000000     0.034550000000     0          
C        C      0.120960000000     0.056300000000     0.056300000000     0          
C        C      0.034550000000     0.262870000000     0.168030000000     0          
C        C      0.056300000000     0.266440000000     0.120960000000     0          
C        C      0.034550000000     0.168030000000     0.262870000000     0          
C        C      0.056300000000     0.120960000000     0.266440000000     0          
C        C      0.262870000000     0.034550000000     0.034550000000     0          
C        C      0.266440000000     0.056300000000     0.056300000000     0          
C        C      0.034550000000     0.034550000000     0.262870000000     0          
C        C      0.056300000000     0.056300000000     0.266440000000     0          
C        C      0.168030000000     0.262870000000     0.034550000000     0          
C        C      0.120960000000     0.266440000000     0.056300000000     0          
C        C      0.262870000000     0.168030000000     0.034550000000     0          
C        C      0.266440000000     0.120960000000     0.056300000000     0          
C        C      0.034550000000     0.034550000000     0.168030000000     0          
C        C      0.056300000000     0.056300000000     0.120960000000     0          
C        C      0.400750000000     0.233610000000     0.400750000000     0          
C        C      0.233610000000     0.400750000000     0.464890000000     0          
C        C      0.400750000000     0.464890000000     0.400750000000     0          
C        C      0.464890000000     0.400750000000     0.233610000000     0          
C        C      0.400750000000     0.400750000000     0.464890000000     0          
C        C      0.233610000000     0.464890000000     0.400750000000     0          
C        C      0.400750000000     0.400750000000     0.233610000000     0          
C        C      0.464890000000     0.233610000000     0.400750000000     0          
C        C      0.400750000000     0.464890000000     0.233610000000     0          
C        C      0.233610000000     0.400750000000     0.400750000000     0          
C        C      0.400750000000     0.233610000000     0.464890000000     0          
C        C      0.464890000000     0.400750000000     0.400750000000     0          
C        C      0.266390000000     0.099250000000     0.099250000000     0          
C        C      0.099250000000     0.266390000000     0.035110000000     0          
C        C      0.035110000000     0.099250000000     0.099250000000     0          
C        C      0.099250000000     0.035110000000     0.266390000000     0          
C        C      0.099250000000     0.099250000000     0.035110000000     0          
C        C      0.035110000000     0.266390000000     0.099250000000     0          
C        C      0.099250000000     0.099250000000     0.266390000000     0          
C        C      0.266390000000     0.035110000000     0.099250000000     0          
C        C      0.035110000000     0.099250000000     0.266390000000     0          
C        C      0.099250000000     0.266390000000     0.099250000000     0          
C        C      0.266390000000     0.099250000000     0.035110000000     0          
C        C      0.099250000000     0.035110000000     0.099250000000     0          
O        O      0.003700000000     0.239340000000     0.313230000000    -1.025      
O        O      0.239340000000     0.003700000000     0.443730000000    -1.025      
O        O      0.313230000000     0.443730000000     0.003700000000    -1.025      
O        O      0.443730000000     0.313230000000     0.239340000000    -1.025      
O        O      0.003700000000     0.313230000000     0.443730000000    -1.025      
O        O      0.239340000000     0.443730000000     0.313230000000    -1.025      
O        O      0.313230000000     0.003700000000     0.239340000000    -1.025      
O        O      0.443730000000     0.239340000000     0.003700000000    -1.025      
O        O      0.003700000000     0.443730000000     0.239340000000    -1.025      
O        O      0.239340000000     0.313230000000     0.003700000000    -1.025      
O        O      0.313230000000     0.239340000000     0.443730000000    -1.025      
O        O      0.443730000000     0.003700000000     0.313230000000    -1.025      
O        O      0.260660000000     0.496300000000     0.186770000000    -1.025      
O        O      0.496300000000     0.260660000000     0.056270000000    -1.025      
O        O      0.056270000000     0.186770000000     0.496300000000    -1.025      
O        O      0.186770000000     0.056270000000     0.260660000000    -1.025      
O        O      0.186770000000     0.496300000000     0.056270000000    -1.025      
O        O      0.056270000000     0.260660000000     0.186770000000    -1.025      
O        O      0.496300000000     0.186770000000     0.260660000000    -1.025      
O        O      0.260660000000     0.056270000000     0.496300000000    -1.025      
O        O      0.056270000000     0.496300000000     0.260660000000    -1.025      
O        O      0.186770000000     0.260660000000     0.496300000000    -1.025      
O        O      0.260660000000     0.186770000000     0.056270000000    -1.025      
O        O      0.496300000000     0.056270000000     0.186770000000    -1.025      
O        O      0.496300000000     0.260660000000     0.186770000000    -1.025      
O        O      0.260660000000     0.496300000000     0.056270000000    -1.025      
O        O      0.186770000000     0.056270000000     0.496300000000    -1.025      
O        O      0.056270000000     0.186770000000     0.260660000000    -1.025      
O        O      0.496300000000     0.186770000000     0.056270000000    -1.025      
O        O      0.260660000000     0.056270000000     0.186770000000    -1.025      
O        O      0.186770000000     0.496300000000     0.260660000000    -1.025      
O        O      0.056270000000     0.260660000000     0.496300000000    -1.025      
O        O      0.496300000000     0.056270000000     0.260660000000    -1.025      
O        O      0.260660000000     0.186770000000     0.496300000000    -1.025      
O        O      0.186770000000     0.260660000000     0.056270000000    -1.025      
O        O      0.056270000000     0.496300000000     0.186770000000    -1.025      
O        O      0.239340000000     0.003700000000     0.313230000000    -1.025      
O        O      0.003700000000     0.239340000000     0.443730000000    -1.025      
O        O      0.443730000000     0.313230000000     0.003700000000    -1.025      
O        O      0.313230000000     0.443730000000     0.239340000000    -1.025      
O        O      0.313230000000     0.003700000000     0.443730000000    -1.025      
O        O      0.443730000000     0.239340000000     0.313230000000    -1.025      
O        O      0.003700000000     0.313230000000     0.239340000000    -1.025      
O        O      0.239340000000     0.443730000000     0.003700000000    -1.025      
O        O      0.443730000000     0.003700000000     0.239340000000    -1.025      
O        O      0.313230000000     0.239340000000     0.003700000000    -1.025      
O        O      0.239340000000     0.313230000000     0.443730000000    -1.025      
O        O      0.003700000000     0.443730000000     0.313230000000    -1.025      
Cu       Cu     0.034930000000     0.250000000000     0.750000000000     0          
Cu       Cu     0.250000000000     0.034930000000     0.965070000000     0          
Cu       Cu     0.250000000000     0.465070000000     0.534930000000     0          
Cu       Cu     0.465070000000     0.250000000000     0.750000000000     0          
Cu       Cu     0.034930000000     0.250000000000     0.965070000000     0          
Cu       Cu     0.250000000000     0.465070000000     0.750000000000     0          
Cu       Cu     0.250000000000     0.034930000000     0.750000000000     0          
Cu       Cu     0.465070000000     0.250000000000     0.534930000000     0          
Cu       Cu     0.034930000000     0.465070000000     0.750000000000     0          
Cu       Cu     0.250000000000     0.250000000000     0.534930000000     0          
Cu       Cu     0.250000000000     0.250000000000     0.965070000000     0          
Cu       Cu     0.465070000000     0.034930000000     0.750000000000     0          
H        H      0.386300000000     0.233700000000     0.886300000000     0          
H        H      0.233700000000     0.386300000000     0.993700000000     0          
H        H      0.386300000000     0.493700000000     0.886300000000     0          
H        H      0.493700000000     0.386300000000     0.733700000000     0          
H        H      0.386300000000     0.386300000000     0.993700000000     0          
H        H      0.233700000000     0.493700000000     0.886300000000     0          
H        H      0.386300000000     0.386300000000     0.733700000000     0          
H        H      0.493700000000     0.233700000000     0.886300000000     0          
H        H      0.386300000000     0.493700000000     0.733700000000     0          
H        H      0.233700000000     0.386300000000     0.886300000000     0          
H        H      0.386300000000     0.233700000000     0.993700000000     0          
H        H      0.493700000000     0.386300000000     0.886300000000     0          
H        H      0.266300000000     0.113700000000     0.613700000000     0          
H        H      0.113700000000     0.266300000000     0.506300000000     0          
H        H      0.006300000000     0.113700000000     0.613700000000     0          
H        H      0.113700000000     0.006300000000     0.766300000000     0          
H        H      0.113700000000     0.113700000000     0.506300000000     0          
H        H      0.006300000000     0.266300000000     0.613700000000     0          
H        H      0.113700000000     0.113700000000     0.766300000000     0          
H        H      0.266300000000     0.006300000000     0.613700000000     0          
H        H      0.006300000000     0.113700000000     0.766300000000     0          
H        H      0.113700000000     0.266300000000     0.613700000000     0          
H        H      0.266300000000     0.113700000000     0.506300000000     0          
H        H      0.113700000000     0.006300000000     0.613700000000     0          
C        C      0.465450000000     0.237130000000     0.831970000000     0          
C        C      0.443700000000     0.233560000000     0.879040000000     0          
C        C      0.237130000000     0.465450000000     0.965450000000     0          
C        C      0.233560000000     0.443700000000     0.943700000000     0          
C        C      0.331970000000     0.465450000000     0.965450000000     0          
C        C      0.379040000000     0.443700000000     0.943700000000     0          
C        C      0.465450000000     0.331970000000     0.737130000000     0          
C        C      0.443700000000     0.379040000000     0.733560000000     0          
C        C      0.465450000000     0.331970000000     0.965450000000     0          
C        C      0.443700000000     0.379040000000     0.943700000000     0          
C        C      0.237130000000     0.465450000000     0.831970000000     0          
C        C      0.233560000000     0.443700000000     0.879040000000     0          
C        C      0.331970000000     0.465450000000     0.737130000000     0          
C        C      0.379040000000     0.443700000000     0.733560000000     0          
C        C      0.465450000000     0.237130000000     0.965450000000     0          
C        C      0.443700000000     0.233560000000     0.943700000000     0          
C        C      0.465450000000     0.465450000000     0.737130000000     0          
C        C      0.443700000000     0.443700000000     0.733560000000     0          
C        C      0.237130000000     0.331970000000     0.965450000000     0          
C        C      0.233560000000     0.379040000000     0.943700000000     0          
C        C      0.331970000000     0.237130000000     0.965450000000     0          
C        C      0.379040000000     0.233560000000     0.943700000000     0          
C        C      0.465450000000     0.465450000000     0.831970000000     0          
C        C      0.443700000000     0.443700000000     0.879040000000     0          
C        C      0.262870000000     0.034550000000     0.668030000000     0          
C        C      0.266440000000     0.056300000000     0.620960000000     0          
C        C      0.034550000000     0.262870000000     0.534550000000     0          
C        C      0.056300000000     0.266440000000     0.556300000000     0          
C        C      0.034550000000     0.168030000000     0.534550000000     0          
C        C      0.056300000000     0.120960000000     0.556300000000     0          
C        C      0.168030000000     0.034550000000     0.762870000000     0          
C        C      0.120960000000     0.056300000000     0.766440000000     0          
C        C      0.168030000000     0.034550000000     0.534550000000     0          
C        C      0.120960000000     0.056300000000     0.556300000000     0          
C        C      0.034550000000     0.262870000000     0.668030000000     0          
C        C      0.056300000000     0.266440000000     0.620960000000     0          
C        C      0.034550000000     0.168030000000     0.762870000000     0          
C        C      0.056300000000     0.120960000000     0.766440000000     0          
C        C      0.262870000000     0.034550000000     0.534550000000     0          
C        C      0.266440000000     0.056300000000     0.556300000000     0          
C        C      0.034550000000     0.034550000000     0.762870000000     0          
C        C      0.056300000000     0.056300000000     0.766440000000     0          
C        C      0.168030000000     0.262870000000     0.534550000000     0          
C        C      0.120960000000     0.266440000000     0.556300000000     0          
C        C      0.262870000000     0.168030000000     0.534550000000     0          
C        C      0.266440000000     0.120960000000     0.556300000000     0          
C        C      0.034550000000     0.034550000000     0.668030000000     0          
C        C      0.056300000000     0.056300000000     0.620960000000     0          
C        C      0.400750000000     0.233610000000     0.900750000000     0          
C        C      0.233610000000     0.400750000000     0.964890000000     0          
C        C      0.400750000000     0.464890000000     0.900750000000     0          
C        C      0.464890000000     0.400750000000     0.733610000000     0          
C        C      0.400750000000     0.400750000000     0.964890000000     0          
C        C      0.233610000000     0.464890000000     0.900750000000     0          
C        C      0.400750000000     0.400750000000     0.733610000000     0          
C        C      0.464890000000     0.233610000000     0.900750000000     0          
C        C      0.400750000000     0.464890000000     0.733610000000     0          
C        C      0.233610000000     0.400750000000     0.900750000000     0          
C        C      0.400750000000     0.233610000000     0.964890000000     0          
C        C      0.464890000000     0.400750000000     0.900750000000     0          
C        C      0.266390000000     0.099250000000     0.599250000000     0          
C        C      0.099250000000     0.266390000000     0.535110000000     0          
C        C      0.035110000000     0.099250000000     0.599250000000     0          
C        C      0.099250000000     0.035110000000     0.766390000000     0          
C        C      0.099250000000     0.099250000000     0.535110000000     0          
C        C      0.035110000000     0.266390000000     0.599250000000     0          
C        C      0.099250000000     0.099250000000     0.766390000000     0          
C        C      0.266390000000     0.035110000000     0.599250000000     0          
C        C      0.035110000000     0.099250000000     0.766390000000     0          
C        C      0.099250000000     0.266390000000     0.599250000000     0          
C        C      0.266390000000     0.099250000000     0.535110000000     0          
C        C      0.099250000000     0.035110000000     0.599250000000     0          
O        O      0.003700000000     0.239340000000     0.813230000000    -1.025      
O        O      0.239340000000     0.003700000000     0.943730000000    -1.025      
O        O      0.313230000000     0.443730000000     0.503700000000    -1.025      
O        O      0.443730000000     0.313230000000     0.739340000000    -1.025      
O        O      0.003700000000     0.313230000000     0.943730000000    -1.025      
O        O      0.239340000000     0.443730000000     0.813230000000    -1.025      
O        O      0.313230000000     0.003700000000     0.739340000000    -1.025      
O        O      0.443730000000     0.239340000000     0.503700000000    -1.025      
O        O      0.003700000000     0.443730000000     0.739340000000    -1.025      
O        O      0.239340000000     0.313230000000     0.503700000000    -1.025      
O        O      0.313230000000     0.239340000000     0.943730000000    -1.025      
O        O      0.443730000000     0.003700000000     0.813230000000    -1.025      
O        O      0.260660000000     0.496300000000     0.686770000000    -1.025      
O        O      0.496300000000     0.260660000000     0.556270000000    -1.025      
O        O      0.056270000000     0.186770000000     0.996300000000    -1.025      
O        O      0.186770000000     0.056270000000     0.760660000000    -1.025      
O        O      0.186770000000     0.496300000000     0.556270000000    -1.025      
O        O      0.056270000000     0.260660000000     0.686770000000    -1.025      
O        O      0.496300000000     0.186770000000     0.760660000000    -1.025      
O        O      0.260660000000     0.056270000000     0.996300000000    -1.025      
O        O      0.056270000000     0.496300000000     0.760660000000    -1.025      
O        O      0.186770000000     0.260660000000     0.996300000000    -1.025      
O        O      0.260660000000     0.186770000000     0.556270000000    -1.025      
O        O      0.496300000000     0.056270000000     0.686770000000    -1.025      
O        O      0.496300000000     0.260660000000     0.686770000000    -1.025      
O        O      0.260660000000     0.496300000000     0.556270000000    -1.025      
O        O      0.186770000000     0.056270000000     0.996300000000    -1.025      
O        O      0.056270000000     0.186770000000     0.760660000000    -1.025      
O        O      0.496300000000     0.186770000000     0.556270000000    -1.025      
O        O      0.260660000000     0.056270000000     0.686770000000    -1.025      
O        O      0.186770000000     0.496300000000     0.760660000000    -1.025      
O        O      0.056270000000     0.260660000000     0.996300000000    -1.025      
O        O      0.496300000000     0.056270000000     0.760660000000    -1.025      
O        O      0.260660000000     0.186770000000     0.996300000000    -1.025      
O        O      0.186770000000     0.260660000000     0.556270000000    -1.025      
O        O      0.056270000000     0.496300000000     0.686770000000    -1.025      
O        O      0.239340000000     0.003700000000     0.813230000000    -1.025      
O        O      0.003700000000     0.239340000000     0.943730000000    -1.025      
O        O      0.443730000000     0.313230000000     0.503700000000    -1.025      
O        O      0.313230000000     0.443730000000     0.739340000000    -1.025      
O        O      0.313230000000     0.003700000000     0.943730000000    -1.025      
O        O      0.443730000000     0.239340000000     0.813230000000    -1.025      
O        O      0.003700000000     0.313230000000     0.739340000000    -1.025      
O        O      0.239340000000     0.443730000000     0.503700000000    -1.025      
O        O      0.443730000000     0.003700000000     0.739340000000    -1.025      
O        O      0.313230000000     0.239340000000     0.503700000000    -1.025      
O        O      0.239340000000     0.313230000000     0.943730000000    -1.025      
O        O      0.003700000000     0.443730000000     0.813230000000    -1.025      
Cu       Cu     0.034930000000     0.750000000000     0.250000000000     0          
Cu       Cu     0.250000000000     0.534930000000     0.465070000000     0          
Cu       Cu     0.250000000000     0.965070000000     0.034930000000     0          
Cu       Cu     0.465070000000     0.750000000000     0.250000000000     0          
Cu       Cu     0.034930000000     0.750000000000     0.465070000000     0          
Cu       Cu     0.250000000000     0.965070000000     0.250000000000     0          
Cu       Cu     0.250000000000     0.534930000000     0.250000000000     0          
Cu       Cu     0.465070000000     0.750000000000     0.034930000000     0          
Cu       Cu     0.034930000000     0.965070000000     0.250000000000     0          
Cu       Cu     0.250000000000     0.750000000000     0.034930000000     0          
Cu       Cu     0.250000000000     0.750000000000     0.465070000000     0          
Cu       Cu     0.465070000000     0.534930000000     0.250000000000     0          
H        H      0.386300000000     0.733700000000     0.386300000000     0          
H        H      0.233700000000     0.886300000000     0.493700000000     0          
H        H      0.386300000000     0.993700000000     0.386300000000     0          
H        H      0.493700000000     0.886300000000     0.233700000000     0          
H        H      0.386300000000     0.886300000000     0.493700000000     0          
H        H      0.233700000000     0.993700000000     0.386300000000     0          
H        H      0.386300000000     0.886300000000     0.233700000000     0          
H        H      0.493700000000     0.733700000000     0.386300000000     0          
H        H      0.386300000000     0.993700000000     0.233700000000     0          
H        H      0.233700000000     0.886300000000     0.386300000000     0          
H        H      0.386300000000     0.733700000000     0.493700000000     0          
H        H      0.493700000000     0.886300000000     0.386300000000     0          
H        H      0.266300000000     0.613700000000     0.113700000000     0          
H        H      0.113700000000     0.766300000000     0.006300000000     0          
H        H      0.006300000000     0.613700000000     0.113700000000     0          
H        H      0.113700000000     0.506300000000     0.266300000000     0          
H        H      0.113700000000     0.613700000000     0.006300000000     0          
H        H      0.006300000000     0.766300000000     0.113700000000     0          
H        H      0.113700000000     0.613700000000     0.266300000000     0          
H        H      0.266300000000     0.506300000000     0.113700000000     0          
H        H      0.006300000000     0.613700000000     0.266300000000     0          
H        H      0.113700000000     0.766300000000     0.113700000000     0          
H        H      0.266300000000     0.613700000000     0.006300000000     0          
H        H      0.113700000000     0.506300000000     0.113700000000     0          
C        C      0.465450000000     0.737130000000     0.331970000000     0          
C        C      0.443700000000     0.733560000000     0.379040000000     0          
C        C      0.237130000000     0.965450000000     0.465450000000     0          
C        C      0.233560000000     0.943700000000     0.443700000000     0          
C        C      0.331970000000     0.965450000000     0.465450000000     0          
C        C      0.379040000000     0.943700000000     0.443700000000     0          
C        C      0.465450000000     0.831970000000     0.237130000000     0          
C        C      0.443700000000     0.879040000000     0.233560000000     0          
C        C      0.465450000000     0.831970000000     0.465450000000     0          
C        C      0.443700000000     0.879040000000     0.443700000000     0          
C        C      0.237130000000     0.965450000000     0.331970000000     0          
C        C      0.233560000000     0.943700000000     0.379040000000     0          
C        C      0.331970000000     0.965450000000     0.237130000000     0          
C        C      0.379040000000     0.943700000000     0.233560000000     0          
C        C      0.465450000000     0.737130000000     0.465450000000     0          
C        C      0.443700000000     0.733560000000     0.443700000000     0          
C        C      0.465450000000     0.965450000000     0.237130000000     0          
C        C      0.443700000000     0.943700000000     0.233560000000     0          
C        C      0.237130000000     0.831970000000     0.465450000000     0          
C        C      0.233560000000     0.879040000000     0.443700000000     0          
C        C      0.331970000000     0.737130000000     0.465450000000     0          
C        C      0.379040000000     0.733560000000     0.443700000000     0          
C        C      0.465450000000     0.965450000000     0.331970000000     0          
C        C      0.443700000000     0.943700000000     0.379040000000     0          
C        C      0.262870000000     0.534550000000     0.168030000000     0          
C        C      0.266440000000     0.556300000000     0.120960000000     0          
C        C      0.034550000000     0.762870000000     0.034550000000     0          
C        C      0.056300000000     0.766440000000     0.056300000000     0          
C        C      0.034550000000     0.668030000000     0.034550000000     0          
C        C      0.056300000000     0.620960000000     0.056300000000     0          
C        C      0.168030000000     0.534550000000     0.262870000000     0          
C        C      0.120960000000     0.556300000000     0.266440000000     0          
C        C      0.168030000000     0.534550000000     0.034550000000     0          
C        C      0.120960000000     0.556300000000     0.056300000000     0          
C        C      0.034550000000     0.762870000000     0.168030000000     0          
C        C      0.056300000000     0.766440000000     0.120960000000     0          
C        C      0.034550000000     0.668030000000     0.262870000000     0          
C        C      0.056300000000     0.620960000000     0.266440000000     0          
C        C      0.262870000000     0.534550000000     0.034550000000     0          
C        C      0.266440000000     0.556300000000     0.056300000000     0          
C        C      0.034550000000     0.534550000000     0.262870000000     0          
C        C      0.056300000000     0.556300000000     0.266440000000     0          
C        C      0.168030000000     0.762870000000     0.034550000000     0          
C        C      0.120960000000     0.766440000000     0.056300000000     0          
C        C      0.262870000000     0.668030000000     0.034550000000     0          
C        C      0.266440000000     0.620960000000     0.056300000000     0          
C        C      0.034550000000     0.534550000000     0.168030000000     0          
C        C      0.056300000000     0.556300000000     0.120960000000     0          
C        C      0.400750000000     0.733610000000     0.400750000000     0          
C        C      0.233610000000     0.900750000000     0.464890000000     0          
C        C      0.400750000000     0.964890000000     0.400750000000     0          
C        C      0.464890000000     0.900750000000     0.233610000000     0          
C        C      0.400750000000     0.900750000000     0.464890000000     0          
C        C      0.233610000000     0.964890000000     0.400750000000     0          
C        C      0.400750000000     0.900750000000     0.233610000000     0          
C        C      0.464890000000     0.733610000000     0.400750000000     0          
C        C      0.400750000000     0.964890000000     0.233610000000     0          
C        C      0.233610000000     0.900750000000     0.400750000000     0          
C        C      0.400750000000     0.733610000000     0.464890000000     0          
C        C      0.464890000000     0.900750000000     0.400750000000     0          
C        C      0.266390000000     0.599250000000     0.099250000000     0          
C        C      0.099250000000     0.766390000000     0.035110000000     0          
C        C      0.035110000000     0.599250000000     0.099250000000     0          
C        C      0.099250000000     0.535110000000     0.266390000000     0          
C        C      0.099250000000     0.599250000000     0.035110000000     0          
C        C      0.035110000000     0.766390000000     0.099250000000     0          
C        C      0.099250000000     0.599250000000     0.266390000000     0          
C        C      0.266390000000     0.535110000000     0.099250000000     0          
C        C      0.035110000000     0.599250000000     0.266390000000     0          
C        C      0.099250000000     0.766390000000     0.099250000000     0          
C        C      0.266390000000     0.599250000000     0.035110000000     0          
C        C      0.099250000000     0.535110000000     0.099250000000     0          
O        O      0.003700000000     0.739340000000     0.313230000000    -1.025      
O        O      0.239340000000     0.503700000000     0.443730000000    -1.025      
O        O      0.313230000000     0.943730000000     0.003700000000    -1.025      
O        O      0.443730000000     0.813230000000     0.239340000000    -1.025      
O        O      0.003700000000     0.813230000000     0.443730000000    -1.025      
O        O      0.239340000000     0.943730000000     0.313230000000    -1.025      
O        O      0.313230000000     0.503700000000     0.239340000000    -1.025      
O        O      0.443730000000     0.739340000000     0.003700000000    -1.025      
O        O      0.003700000000     0.943730000000     0.239340000000    -1.025      
O        O      0.239340000000     0.813230000000     0.003700000000    -1.025      
O        O      0.313230000000     0.739340000000     0.443730000000    -1.025      
O        O      0.443730000000     0.503700000000     0.313230000000    -1.025      
O        O      0.260660000000     0.996300000000     0.186770000000    -1.025      
O        O      0.496300000000     0.760660000000     0.056270000000    -1.025      
O        O      0.056270000000     0.686770000000     0.496300000000    -1.025      
O        O      0.186770000000     0.556270000000     0.260660000000    -1.025      
O        O      0.186770000000     0.996300000000     0.056270000000    -1.025      
O        O      0.056270000000     0.760660000000     0.186770000000    -1.025      
O        O      0.496300000000     0.686770000000     0.260660000000    -1.025      
O        O      0.260660000000     0.556270000000     0.496300000000    -1.025      
O        O      0.056270000000     0.996300000000     0.260660000000    -1.025      
O        O      0.186770000000     0.760660000000     0.496300000000    -1.025      
O        O      0.260660000000     0.686770000000     0.056270000000    -1.025      
O        O      0.496300000000     0.556270000000     0.186770000000    -1.025      
O        O      0.496300000000     0.760660000000     0.186770000000    -1.025      
O        O      0.260660000000     0.996300000000     0.056270000000    -1.025      
O        O      0.186770000000     0.556270000000     0.496300000000    -1.025      
O        O      0.056270000000     0.686770000000     0.260660000000    -1.025      
O        O      0.496300000000     0.686770000000     0.056270000000    -1.025      
O        O      0.260660000000     0.556270000000     0.186770000000    -1.025      
O        O      0.186770000000     0.996300000000     0.260660000000    -1.025      
O        O      0.056270000000     0.760660000000     0.496300000000    -1.025      
O        O      0.496300000000     0.556270000000     0.260660000000    -1.025      
O        O      0.260660000000     0.686770000000     0.496300000000    -1.025      
O        O      0.186770000000     0.760660000000     0.056270000000    -1.025      
O        O      0.056270000000     0.996300000000     0.186770000000    -1.025      
O        O      0.239340000000     0.503700000000     0.313230000000    -1.025      
O        O      0.003700000000     0.739340000000     0.443730000000    -1.025      
O        O      0.443730000000     0.813230000000     0.003700000000    -1.025      
O        O      0.313230000000     0.943730000000     0.239340000000    -1.025      
O        O      0.313230000000     0.503700000000     0.443730000000    -1.025      
O        O      0.443730000000     0.739340000000     0.313230000000    -1.025      
O        O      0.003700000000     0.813230000000     0.239340000000    -1.025      
O        O      0.239340000000     0.943730000000     0.003700000000    -1.025      
O        O      0.443730000000     0.503700000000     0.239340000000    -1.025      
O        O      0.313230000000     0.739340000000     0.003700000000    -1.025      
O        O      0.239340000000     0.813230000000     0.443730000000    -1.025      
O        O      0.003700000000     0.943730000000     0.313230000000    -1.025      
Cu       Cu     0.034930000000     0.750000000000     0.750000000000     0          
Cu       Cu     0.250000000000     0.534930000000     0.965070000000     0          
Cu       Cu     0.250000000000     0.965070000000     0.534930000000     0          
Cu       Cu     0.465070000000     0.750000000000     0.750000000000     0          
Cu       Cu     0.034930000000     0.750000000000     0.965070000000     0          
Cu       Cu     0.250000000000     0.965070000000     0.750000000000     0          
Cu       Cu     0.250000000000     0.534930000000     0.750000000000     0          
Cu       Cu     0.465070000000     0.750000000000     0.534930000000     0          
Cu       Cu     0.034930000000     0.965070000000     0.750000000000     0          
Cu       Cu     0.250000000000     0.750000000000     0.534930000000     0          
Cu       Cu     0.250000000000     0.750000000000     0.965070000000     0          
Cu       Cu     0.465070000000     0.534930000000     0.750000000000     0          
H        H      0.386300000000     0.733700000000     0.886300000000     0          
H        H      0.233700000000     0.886300000000     0.993700000000     0          
H        H      0.386300000000     0.993700000000     0.886300000000     0          
H        H      0.493700000000     0.886300000000     0.733700000000     0          
H        H      0.386300000000     0.886300000000     0.993700000000     0          
H        H      0.233700000000     0.993700000000     0.886300000000     0          
H        H      0.386300000000     0.886300000000     0.733700000000     0          
H        H      0.493700000000     0.733700000000     0.886300000000     0          
H        H      0.386300000000     0.993700000000     0.733700000000     0          
H        H      0.233700000000     0.886300000000     0.886300000000     0          
H        H      0.386300000000     0.733700000000     0.993700000000     0          
H        H      0.493700000000     0.886300000000     0.886300000000     0          
H        H      0.266300000000     0.613700000000     0.613700000000     0          
H        H      0.113700000000     0.766300000000     0.506300000000     0          
H        H      0.006300000000     0.613700000000     0.613700000000     0          
H        H      0.113700000000     0.506300000000     0.766300000000     0          
H        H      0.113700000000     0.613700000000     0.506300000000     0          
H        H      0.006300000000     0.766300000000     0.613700000000     0          
H        H      0.113700000000     0.613700000000     0.766300000000     0          
H        H      0.266300000000     0.506300000000     0.613700000000     0          
H        H      0.006300000000     0.613700000000     0.766300000000     0          
H        H      0.113700000000     0.766300000000     0.613700000000     0          
H        H      0.266300000000     0.613700000000     0.506300000000     0          
H        H      0.113700000000     0.506300000000     0.613700000000     0          
C        C      0.465450000000     0.737130000000     0.831970000000     0          
C        C      0.443700000000     0.733560000000     0.879040000000     0          
C        C      0.237130000000     0.965450000000     0.965450000000     0          
C        C      0.233560000000     0.943700000000     0.943700000000     0          
C        C      0.331970000000     0.965450000000     0.965450000000     0          
C        C      0.379040000000     0.943700000000     0.943700000000     0          
C        C      0.465450000000     0.831970000000     0.737130000000     0          
C        C      0.443700000000     0.879040000000     0.733560000000     0          
C        C      0.465450000000     0.831970000000     0.965450000000     0          
C        C      0.443700000000     0.879040000000     0.943700000000     0          
C        C      0.237130000000     0.965450000000     0.831970000000     0          
C        C      0.233560000000     0.943700000000     0.879040000000     0          
C        C      0.331970000000     0.965450000000     0.737130000000     0          
C        C      0.379040000000     0.943700000000     0.733560000000     0          
C        C      0.465450000000     0.737130000000     0.965450000000     0          
C        C      0.443700000000     0.733560000000     0.943700000000     0          
C        C      0.465450000000     0.965450000000     0.737130000000     0          
C        C      0.443700000000     0.943700000000     0.733560000000     0          
C        C      0.237130000000     0.831970000000     0.965450000000     0          
C        C      0.233560000000     0.879040000000     0.943700000000     0          
C        C      0.331970000000     0.737130000000     0.965450000000     0          
C        C      0.379040000000     0.733560000000     0.943700000000     0          
C        C      0.465450000000     0.965450000000     0.831970000000     0          
C        C      0.443700000000     0.943700000000     0.879040000000     0          
C        C      0.262870000000     0.534550000000     0.668030000000     0          
C        C      0.266440000000     0.556300000000     0.620960000000     0          
C        C      0.034550000000     0.762870000000     0.534550000000     0          
C        C      0.056300000000     0.766440000000     0.556300000000     0          
C        C      0.034550000000     0.668030000000     0.534550000000     0          
C        C      0.056300000000     0.620960000000     0.556300000000     0          
C        C      0.168030000000     0.534550000000     0.762870000000     0          
C        C      0.120960000000     0.556300000000     0.766440000000     0          
C        C      0.168030000000     0.534550000000     0.534550000000     0          
C        C      0.120960000000     0.556300000000     0.556300000000     0          
C        C      0.034550000000     0.762870000000     0.668030000000     0          
C        C      0.056300000000     0.766440000000     0.620960000000     0          
C        C      0.034550000000     0.668030000000     0.762870000000     0          
C        C      0.056300000000     0.620960000000     0.766440000000     0          
C        C      0.262870000000     0.534550000000     0.534550000000     0          
C        C      0.266440000000     0.556300000000     0.556300000000     0          
C        C      0.034550000000     0.534550000000     0.762870000000     0          
C        C      0.056300000000     0.556300000000     0.766440000000     0          
C        C      0.168030000000     0.762870000000     0.534550000000     0          
C        C      0.120960000000     0.766440000000     0.556300000000     0          
C        C      0.262870000000     0.668030000000     0.534550000000     0          
C        C      0.266440000000     0.620960000000     0.556300000000     0          
C        C      0.034550000000     0.534550000000     0.668030000000     0          
C        C      0.056300000000     0.556300000000     0.620960000000     0          
C        C      0.400750000000     0.733610000000     0.900750000000     0          
C        C      0.233610000000     0.900750000000     0.964890000000     0          
C        C      0.400750000000     0.964890000000     0.900750000000     0          
C        C      0.464890000000     0.900750000000     0.733610000000     0          
C        C      0.400750000000     0.900750000000     0.964890000000     0          
C        C      0.233610000000     0.964890000000     0.900750000000     0          
C        C      0.400750000000     0.900750000000     0.733610000000     0          
C        C      0.464890000000     0.733610000000     0.900750000000     0          
C        C      0.400750000000     0.964890000000     0.733610000000     0          
C        C      0.233610000000     0.900750000000     0.900750000000     0          
C        C      0.400750000000     0.733610000000     0.964890000000     0          
C        C      0.464890000000     0.900750000000     0.900750000000     0          
C        C      0.266390000000     0.599250000000     0.599250000000     0          
C        C      0.099250000000     0.766390000000     0.535110000000     0          
C        C      0.035110000000     0.599250000000     0.599250000000     0          
C        C      0.099250000000     0.535110000000     0.766390000000     0          
C        C      0.099250000000     0.599250000000     0.535110000000     0          
C        C      0.035110000000     0.766390000000     0.599250000000     0          
C        C      0.099250000000     0.599250000000     0.766390000000     0          
C        C      0.266390000000     0.535110000000     0.599250000000     0          
C        C      0.035110000000     0.599250000000     0.766390000000     0          
C        C      0.099250000000     0.766390000000     0.599250000000     0          
C        C      0.266390000000     0.599250000000     0.535110000000     0          
C        C      0.099250000000     0.535110000000     0.599250000000     0          
O        O      0.003700000000     0.739340000000     0.813230000000    -1.025      
O        O      0.239340000000     0.503700000000     0.943730000000    -1.025      
O        O      0.313230000000     0.943730000000     0.503700000000    -1.025      
O        O      0.443730000000     0.813230000000     0.739340000000    -1.025      
O        O      0.003700000000     0.813230000000     0.943730000000    -1.025      
O        O      0.239340000000     0.943730000000     0.813230000000    -1.025      
O        O      0.313230000000     0.503700000000     0.739340000000    -1.025      
O        O      0.443730000000     0.739340000000     0.503700000000    -1.025      
O        O      0.003700000000     0.943730000000     0.739340000000    -1.025      
O        O      0.239340000000     0.813230000000     0.503700000000    -1.025      
O        O      0.313230000000     0.739340000000     0.943730000000    -1.025      
O        O      0.443730000000     0.503700000000     0.813230000000    -1.025      
O        O      0.260660000000     0.996300000000     0.686770000000    -1.025      
O        O      0.496300000000     0.760660000000     0.556270000000    -1.025      
O        O      0.056270000000     0.686770000000     0.996300000000    -1.025      
O        O      0.186770000000     0.556270000000     0.760660000000    -1.025      
O        O      0.186770000000     0.996300000000     0.556270000000    -1.025      
O        O      0.056270000000     0.760660000000     0.686770000000    -1.025      
O        O      0.496300000000     0.686770000000     0.760660000000    -1.025      
O        O      0.260660000000     0.556270000000     0.996300000000    -1.025      
O        O      0.056270000000     0.996300000000     0.760660000000    -1.025      
O        O      0.186770000000     0.760660000000     0.996300000000    -1.025      
O        O      0.260660000000     0.686770000000     0.556270000000    -1.025      
O        O      0.496300000000     0.556270000000     0.686770000000    -1.025      
O        O      0.496300000000     0.760660000000     0.686770000000    -1.025      
O        O      0.260660000000     0.996300000000     0.556270000000    -1.025      
O        O      0.186770000000     0.556270000000     0.996300000000    -1.025      
O        O      0.056270000000     0.686770000000     0.760660000000    -1.025      
O        O      0.496300000000     0.686770000000     0.556270000000    -1.025      
O        O      0.260660000000     0.556270000000     0.686770000000    -1.025      
O        O      0.186770000000     0.996300000000     0.760660000000    -1.025      
O        O      0.056270000000     0.760660000000     0.996300000000    -1.025      
O        O      0.496300000000     0.556270000000     0.760660000000    -1.025      
O        O      0.260660000000     0.686770000000     0.996300000000    -1.025      
O        O      0.186770000000     0.760660000000     0.556270000000    -1.025      
O        O      0.056270000000     0.996300000000     0.686770000000    -1.025      
O        O      0.239340000000     0.503700000000     0.813230000000    -1.025      
O        O      0.003700000000     0.739340000000     0.943730000000    -1.025      
O        O      0.443730000000     0.813230000000     0.503700000000    -1.025      
O        O      0.313230000000     0.943730000000     0.739340000000    -1.025      
O        O      0.313230000000     0.503700000000     0.943730000000    -1.025      
O        O      0.443730000000     0.739340000000     0.813230000000    -1.025      
O        O      0.003700000000     0.813230000000     0.739340000000    -1.025      
O        O      0.239340000000     0.943730000000     0.503700000000    -1.025      
O        O      0.443730000000     0.503700000000     0.739340000000    -1.025      
O        O      0.313230000000     0.739340000000     0.503700000000    -1.025      
O        O      0.239340000000     0.813230000000     0.943730000000    -1.025      
O        O      0.003700000000     0.943730000000     0.813230000000    -1.025      
Cu       Cu     0.534930000000     0.250000000000     0.250000000000     0          
Cu       Cu     0.750000000000     0.034930000000     0.465070000000     0          
Cu       Cu     0.750000000000     0.465070000000     0.034930000000     0          
Cu       Cu     0.965070000000     0.250000000000     0.250000000000     0          
Cu       Cu     0.534930000000     0.250000000000     0.465070000000     0          
Cu       Cu     0.750000000000     0.465070000000     0.250000000000     0          
Cu       Cu     0.750000000000     0.034930000000     0.250000000000     0          
Cu       Cu     0.965070000000     0.250000000000     0.034930000000     0          
Cu       Cu     0.534930000000     0.465070000000     0.250000000000     0          
Cu       Cu     0.750000000000     0.250000000000     0.034930000000     0          
Cu       Cu     0.750000000000     0.250000000000     0.465070000000     0          
Cu       Cu     0.965070000000     0.034930000000     0.250000000000     0          
H        H      0.886300000000     0.233700000000     0.386300000000     0          
H        H      0.733700000000     0.386300000000     0.493700000000     0          
H        H      0.886300000000     0.493700000000     0.386300000000     0          
H        H      0.993700000000     0.386300000000     0.233700000000     0          
H        H      0.886300000000     0.386300000000     0.493700000000     0          
H        H      0.733700000000     0.493700000000     0.386300000000     0          
H        H      0.886300000000     0.386300000000     0.233700000000     0          
H        H      0.993700000000     0.233700000000     0.386300000000     0          
H        H      0.886300000000     0.493700000000     0.233700000000     0          
H        H      0.733700000000     0.386300000000     0.386300000000     0          
H        H      0.886300000000     0.233700000000     0.493700000000     0          
H        H      0.993700000000     0.386300000000     0.386300000000     0          
H        H      0.766300000000     0.113700000000     0.113700000000     0          
H        H      0.613700000000     0.266300000000     0.006300000000     0          
H        H      0.506300000000     0.113700000000     0.113700000000     0          
H        H      0.613700000000     0.006300000000     0.266300000000     0          
H        H      0.613700000000     0.113700000000     0.006300000000     0          
H        H      0.506300000000     0.266300000000     0.113700000000     0          
H        H      0.613700000000     0.113700000000     0.266300000000     0          
H        H      0.766300000000     0.006300000000     0.113700000000     0          
H        H      0.506300000000     0.113700000000     0.266300000000     0          
H        H      0.613700000000     0.266300000000     0.113700000000     0          
H        H      0.766300000000     0.113700000000     0.006300000000     0          
H        H      0.613700000000     0.006300000000     0.113700000000     0          
C        C      0.965450000000     0.237130000000     0.331970000000     0          
C        C      0.943700000000     0.233560000000     0.379040000000     0          
C        C      0.737130000000     0.465450000000     0.465450000000     0          
C        C      0.733560000000     0.443700000000     0.443700000000     0          
C        C      0.831970000000     0.465450000000     0.465450000000     0          
C        C      0.879040000000     0.443700000000     0.443700000000     0          
C        C      0.965450000000     0.331970000000     0.237130000000     0          
C        C      0.943700000000     0.379040000000     0.233560000000     0          
C        C      0.965450000000     0.331970000000     0.465450000000     0          
C        C      0.943700000000     0.379040000000     0.443700000000     0          
C        C      0.737130000000     0.465450000000     0.331970000000     0          
C        C      0.733560000000     0.443700000000     0.379040000000     0          
C        C      0.831970000000     0.465450000000     0.237130000000     0          
C        C      0.879040000000     0.443700000000     0.233560000000     0          
C        C      0.965450000000     0.237130000000     0.465450000000     0          
C        C      0.943700000000     0.233560000000     0.443700000000     0          
C        C      0.965450000000     0.465450000000     0.237130000000     0          
C        C      0.943700000000     0.443700000000     0.233560000000     0          
C        C      0.737130000000     0.331970000000     0.465450000000     0          
C        C      0.733560000000     0.379040000000     0.443700000000     0          
C        C      0.831970000000     0.237130000000     0.465450000000     0          
C        C      0.879040000000     0.233560000000     0.443700000000     0          
C        C      0.965450000000     0.465450000000     0.331970000000     0          
C        C      0.943700000000     0.443700000000     0.379040000000     0          
C        C      0.762870000000     0.034550000000     0.168030000000     0          
C        C      0.766440000000     0.056300000000     0.120960000000     0          
C        C      0.534550000000     0.262870000000     0.034550000000     0          
C        C      0.556300000000     0.266440000000     0.056300000000     0          
C        C      0.534550000000     0.168030000000     0.034550000000     0          
C        C      0.556300000000     0.120960000000     0.056300000000     0          
C        C      0.668030000000     0.034550000000     0.262870000000     0          
C        C      0.620960000000     0.056300000000     0.266440000000     0          
C        C      0.668030000000     0.034550000000     0.034550000000     0          
C        C      0.620960000000     0.056300000000     0.056300000000     0          
C        C      0.534550000000     0.262870000000     0.168030000000     0          
C        C      0.556300000000     0.266440000000     0.120960000000     0          
C        C      0.534550000000     0.168030000000     0.262870000000     0          
C        C      0.556300000000     0.120960000000     0.266440000000     0          
C        C      0.762870000000     0.034550000000     0.034550000000     0          
C        C      0.766440000000     0.056300000000     0.056300000000     0          
C        C      0.534550000000     0.034550000000     0.262870000000     0          
C        C      0.556300000000     0.056300000000     0.266440000000     0          
C        C      0.668030000000     0.262870000000     0.034550000000     0          
C        C      0.620960000000     0.266440000000     0.056300000000     0          
C        C      0.762870000000     0.168030000000     0.034550000000     0          
C        C      0.766440000000     0.120960000000     0.056300000000     0          
C        C      0.534550000000     0.034550000000     0.168030000000     0          
C        C      0.556300000000     0.056300000000     0.120960000000     0          
C        C      0.900750000000     0.233610000000     0.400750000000     0          
C        C      0.733610000000     0.400750000000     0.464890000000     0          
C        C      0.900750000000     0.464890000000     0.400750000000     0          
C        C      0.964890000000     0.400750000000     0.233610000000     0          
C        C      0.900750000000     0.400750000000     0.464890000000     0          
C        C      0.733610000000     0.464890000000     0.400750000000     0          
C        C      0.900750000000     0.400750000000     0.233610000000     0          
C        C      0.964890000000     0.233610000000     0.400750000000     0          
C        C      0.900750000000     0.464890000000     0.233610000000     0          
C        C      0.733610000000     0.400750000000     0.400750000000     0          
C        C      0.900750000000     0.233610000000     0.464890000000     0          
C        C      0.964890000000     0.400750000000     0.400750000000     0          
C        C      0.766390000000     0.099250000000     0.099250000000     0          
C        C      0.599250000000     0.266390000000     0.035110000000     0          
C        C      0.535110000000     0.099250000000     0.099250000000     0          
C        C      0.599250000000     0.035110000000     0.266390000000     0          
C        C      0.599250000000     0.099250000000     0.035110000000     0          
C        C      0.535110000000     0.266390000000     0.099250000000     0          
C        C      0.599250000000     0.099250000000     0.266390000000     0          
C        C      0.766390000000     0.035110000000     0.099250000000     0          
C        C      0.535110000000     0.099250000000     0.266390000000     0          
C        C      0.599250000000     0.266390000000     0.099250000000     0          
C        C      0.766390000000     0.099250000000     0.035110000000     0          
C        C      0.599250000000     0.035110000000     0.099250000000     0          
O        O      0.503700000000     0.239340000000     0.313230000000    -1.025      
O        O      0.739340000000     0.003700000000     0.443730000000    -1.025      
O        O      0.813230000000     0.443730000000     0.003700000000    -1.025      
O        O      0.943730000000     0.313230000000     0.239340000000    -1.025      
O        O      0.503700000000     0.313230000000     0.443730000000    -1.025      
O        O      0.739340000000     0.443730000000     0.313230000000    -1.025      
O        O      0.813230000000     0.003700000000     0.239340000000    -1.025      
O        O      0.943730000000     0.239340000000     0.003700000000    -1.025      
O        O      0.503700000000     0.443730000000     0.239340000000    -1.025      
O        O      0.739340000000     0.313230000000     0.003700000000    -1.025      
O        O      0.813230000000     0.239340000000     0.443730000000    -1.025      
O        O      0.943730000000     0.003700000000     0.313230000000    -1.025      
O        O      0.760660000000     0.496300000000     0.186770000000    -1.025      
O        O      0.996300000000     0.260660000000     0.056270000000    -1.025      
O        O      0.556270000000     0.186770000000     0.496300000000    -1.025      
O        O      0.686770000000     0.056270000000     0.260660000000    -1.025      
O        O      0.686770000000     0.496300000000     0.056270000000    -1.025      
O        O      0.556270000000     0.260660000000     0.186770000000    -1.025      
O        O      0.996300000000     0.186770000000     0.260660000000    -1.025      
O        O      0.760660000000     0.056270000000     0.496300000000    -1.025      
O        O      0.556270000000     0.496300000000     0.260660000000    -1.025      
O        O      0.686770000000     0.260660000000     0.496300000000    -1.025      
O        O      0.760660000000     0.186770000000     0.056270000000    -1.025      
O        O      0.996300000000     0.056270000000     0.186770000000    -1.025      
O        O      0.996300000000     0.260660000000     0.186770000000    -1.025      
O        O      0.760660000000     0.496300000000     0.056270000000    -1.025      
O        O      0.686770000000     0.056270000000     0.496300000000    -1.025      
O        O      0.556270000000     0.186770000000     0.260660000000    -1.025      
O        O      0.996300000000     0.186770000000     0.056270000000    -1.025      
O        O      0.760660000000     0.056270000000     0.186770000000    -1.025      
O        O      0.686770000000     0.496300000000     0.260660000000    -1.025      
O        O      0.556270000000     0.260660000000     0.496300000000    -1.025      
O        O      0.996300000000     0.056270000000     0.260660000000    -1.025      
O        O      0.760660000000     0.186770000000     0.496300000000    -1.025      
O        O      0.686770000000     0.260660000000     0.056270000000    -1.025      
O        O      0.556270000000     0.496300000000     0.186770000000    -1.025      
O        O      0.739340000000     0.003700000000     0.313230000000    -1.025      
O        O      0.503700000000     0.239340000000     0.443730000000    -1.025      
O        O      0.943730000000     0.313230000000     0.003700000000    -1.025      
O        O      0.813230000000     0.443730000000     0.239340000000    -1.025      
O        O      0.813230000000     0.003700000000     0.443730000000    -1.025      
O        O      0.943730000000     0.239340000000     0.313230000000    -1.025      
O        O      0.503700000000     0.313230000000     0.239340000000    -1.025      
O        O      0.739340000000     0.443730000000     0.003700000000    -1.025      
O        O      0.943730000000     0.003700000000     0.239340000000    -1.025      
O        O      0.813230000000     0.239340000000     0.003700000000    -1.025      
O        O      0.739340000000     0.313230000000     0.443730000000    -1.025      
O        O      0.503700000000     0.443730000000     0.313230000000    -1.025      
Cu       Cu     0.534930000000     0.250000000000     0.750000000000     0          
Cu       Cu     0.750000000000     0.034930000000     0.965070000000     0          
Cu       Cu     0.750000000000     0.465070000000     0.534930000000     0          
Cu       Cu     0.965070000000     0.250000000000     0.750000000000     0          
Cu       Cu     0.534930000000     0.250000000000     0.965070000000     0          
Cu       Cu     0.750000000000     0.465070000000     0.750000000000     0          
Cu       Cu     0.750000000000     0.034930000000     0.750000000000     0          
Cu       Cu     0.965070000000     0.250000000000     0.534930000000     0          
Cu       Cu     0.534930000000     0.465070000000     0.750000000000     0          
Cu       Cu     0.750000000000     0.250000000000     0.534930000000     0          
Cu       Cu     0.750000000000     0.250000000000     0.965070000000     0          
Cu       Cu     0.965070000000     0.034930000000     0.750000000000     0          
H        H      0.886300000000     0.233700000000     0.886300000000     0          
H        H      0.733700000000     0.386300000000     0.993700000000     0          
H        H      0.886300000000     0.493700000000     0.886300000000     0          
H        H      0.993700000000     0.386300000000     0.733700000000     0          
H        H      0.886300000000     0.386300000000     0.993700000000     0          
H        H      0.733700000000     0.493700000000     0.886300000000     0          
H        H      0.886300000000     0.386300000000     0.733700000000     0          
H        H      0.993700000000     0.233700000000     0.886300000000     0          
H        H      0.886300000000     0.493700000000     0.733700000000     0          
H        H      0.733700000000     0.386300000000     0.886300000000     0          
H        H      0.886300000000     0.233700000000     0.993700000000     0          
H        H      0.993700000000     0.386300000000     0.886300000000     0          
H        H      0.766300000000     0.113700000000     0.613700000000     0          
H        H      0.613700000000     0.266300000000     0.506300000000     0          
H        H      0.506300000000     0.113700000000     0.613700000000     0          
H        H      0.613700000000     0.006300000000     0.766300000000     0          
H        H      0.613700000000     0.113700000000     0.506300000000     0          
H        H      0.506300000000     0.266300000000     0.613700000000     0          
H        H      0.613700000000     0.113700000000     0.766300000000     0          
H        H      0.766300000000     0.006300000000     0.613700000000     0          
H        H      0.506300000000     0.113700000000     0.766300000000     0          
H        H      0.613700000000     0.266300000000     0.613700000000     0          
H        H      0.766300000000     0.113700000000     0.506300000000     0          
H        H      0.613700000000     0.006300000000     0.613700000000     0          
C        C      0.965450000000     0.237130000000     0.831970000000     0          
C        C      0.943700000000     0.233560000000     0.879040000000     0          
C        C      0.737130000000     0.465450000000     0.965450000000     0          
C        C      0.733560000000     0.443700000000     0.943700000000     0          
C        C      0.831970000000     0.465450000000     0.965450000000     0          
C        C      0.879040000000     0.443700000000     0.943700000000     0          
C        C      0.965450000000     0.331970000000     0.737130000000     0          
C        C      0.943700000000     0.379040000000     0.733560000000     0          
C        C      0.965450000000     0.331970000000     0.965450000000     0          
C        C      0.943700000000     0.379040000000     0.943700000000     0          
C        C      0.737130000000     0.465450000000     0.831970000000     0          
C        C      0.733560000000     0.443700000000     0.879040000000     0          
C        C      0.831970000000     0.465450000000     0.737130000000     0          
C        C      0.879040000000     0.443700000000     0.733560000000     0          
C        C      0.965450000000     0.237130000000     0.965450000000     0          
C        C      0.943700000000     0.233560000000     0.943700000000     0          
C        C      0.965450000000     0.465450000000     0.737130000000     0          
C        C      0.943700000000     0.443700000000     0.733560000000     0          
C        C      0.737130000000     0.331970000000     0.965450000000     0          
C        C      0.733560000000     0.379040000000     0.943700000000     0          
C        C      0.831970000000     0.237130000000     0.965450000000     0          
C        C      0.879040000000     0.233560000000     0.943700000000     0          
C        C      0.965450000000     0.465450000000     0.831970000000     0          
C        C      0.943700000000     0.443700000000     0.879040000000     0          
C        C      0.762870000000     0.034550000000     0.668030000000     0          
C        C      0.766440000000     0.056300000000     0.620960000000     0          
C        C      0.534550000000     0.262870000000     0.534550000000     0          
C        C      0.556300000000     0.266440000000     0.556300000000     0          
C        C      0.534550000000     0.168030000000     0.534550000000     0          
C        C      0.556300000000     0.120960000000     0.556300000000     0          
C        C      0.668030000000     0.034550000000     0.762870000000     0          
C        C      0.620960000000     0.056300000000     0.766440000000     0          
C        C      0.668030000000     0.034550000000     0.534550000000     0          
C        C      0.620960000000     0.056300000000     0.556300000000     0          
C        C      0.534550000000     0.262870000000     0.668030000000     0          
C        C      0.556300000000     0.266440000000     0.620960000000     0          
C        C      0.534550000000     0.168030000000     0.762870000000     0          
C        C      0.556300000000     0.120960000000     0.766440000000     0          
C        C      0.762870000000     0.034550000000     0.534550000000     0          
C        C      0.766440000000     0.056300000000     0.556300000000     0          
C        C      0.534550000000     0.034550000000     0.762870000000     0          
C        C      0.556300000000     0.056300000000     0.766440000000     0          
C        C      0.668030000000     0.262870000000     0.534550000000     0          
C        C      0.620960000000     0.266440000000     0.556300000000     0          
C        C      0.762870000000     0.168030000000     0.534550000000     0          
C        C      0.766440000000     0.120960000000     0.556300000000     0          
C        C      0.534550000000     0.034550000000     0.668030000000     0          
C        C      0.556300000000     0.056300000000     0.620960000000     0          
C        C      0.900750000000     0.233610000000     0.900750000000     0          
C        C      0.733610000000     0.400750000000     0.964890000000     0          
C        C      0.900750000000     0.464890000000     0.900750000000     0          
C        C      0.964890000000     0.400750000000     0.733610000000     0          
C        C      0.900750000000     0.400750000000     0.964890000000     0          
C        C      0.733610000000     0.464890000000     0.900750000000     0          
C        C      0.900750000000     0.400750000000     0.733610000000     0          
C        C      0.964890000000     0.233610000000     0.900750000000     0          
C        C      0.900750000000     0.464890000000     0.733610000000     0          
C        C      0.733610000000     0.400750000000     0.900750000000     0          
C        C      0.900750000000     0.233610000000     0.964890000000     0          
C        C      0.964890000000     0.400750000000     0.900750000000     0          
C        C      0.766390000000     0.099250000000     0.599250000000     0          
C        C      0.599250000000     0.266390000000     0.535110000000     0          
C        C      0.535110000000     0.099250000000     0.599250000000     0          
C        C      0.599250000000     0.035110000000     0.766390000000     0          
C        C      0.599250000000     0.099250000000     0.535110000000     0          
C        C      0.535110000000     0.266390000000     0.599250000000     0          
C        C      0.599250000000     0.099250000000     0.766390000000     0          
C        C      0.766390000000     0.035110000000     0.599250000000     0          
C        C      0.535110000000     0.099250000000     0.766390000000     0          
C        C      0.599250000000     0.266390000000     0.599250000000     0          
C        C      0.766390000000     0.099250000000     0.535110000000     0          
C        C      0.599250000000     0.035110000000     0.599250000000     0          
O        O      0.503700000000     0.239340000000     0.813230000000    -1.025      
O        O      0.739340000000     0.003700000000     0.943730000000    -1.025      
O        O      0.813230000000     0.443730000000     0.503700000000    -1.025      
O        O      0.943730000000     0.313230000000     0.739340000000    -1.025      
O        O      0.503700000000     0.313230000000     0.943730000000    -1.025      
O        O      0.739340000000     0.443730000000     0.813230000000    -1.025      
O        O      0.813230000000     0.003700000000     0.739340000000    -1.025      
O        O      0.943730000000     0.239340000000     0.503700000000    -1.025      
O        O      0.503700000000     0.443730000000     0.739340000000    -1.025      
O        O      0.739340000000     0.313230000000     0.503700000000    -1.025      
O        O      0.813230000000     0.239340000000     0.943730000000    -1.025      
O        O      0.943730000000     0.003700000000     0.813230000000    -1.025      
O        O      0.760660000000     0.496300000000     0.686770000000    -1.025      
O        O      0.996300000000     0.260660000000     0.556270000000    -1.025      
O        O      0.556270000000     0.186770000000     0.996300000000    -1.025      
O        O      0.686770000000     0.056270000000     0.760660000000    -1.025      
O        O      0.686770000000     0.496300000000     0.556270000000    -1.025      
O        O      0.556270000000     0.260660000000     0.686770000000    -1.025      
O        O      0.996300000000     0.186770000000     0.760660000000    -1.025      
O        O      0.760660000000     0.056270000000     0.996300000000    -1.025      
O        O      0.556270000000     0.496300000000     0.760660000000    -1.025      
O        O      0.686770000000     0.260660000000     0.996300000000    -1.025      
O        O      0.760660000000     0.186770000000     0.556270000000    -1.025      
O        O      0.996300000000     0.056270000000     0.686770000000    -1.025      
O        O      0.996300000000     0.260660000000     0.686770000000    -1.025      
O        O      0.760660000000     0.496300000000     0.556270000000    -1.025      
O        O      0.686770000000     0.056270000000     0.996300000000    -1.025      
O        O      0.556270000000     0.186770000000     0.760660000000    -1.025      
O        O      0.996300000000     0.186770000000     0.556270000000    -1.025      
O        O      0.760660000000     0.056270000000     0.686770000000    -1.025      
O        O      0.686770000000     0.496300000000     0.760660000000    -1.025      
O        O      0.556270000000     0.260660000000     0.996300000000    -1.025      
O        O      0.996300000000     0.056270000000     0.760660000000    -1.025      
O        O      0.760660000000     0.186770000000     0.996300000000    -1.025      
O        O      0.686770000000     0.260660000000     0.556270000000    -1.025      
O        O      0.556270000000     0.496300000000     0.686770000000    -1.025      
O        O      0.739340000000     0.003700000000     0.813230000000    -1.025      
O        O      0.503700000000     0.239340000000     0.943730000000    -1.025      
O        O      0.943730000000     0.313230000000     0.503700000000    -1.025      
O        O      0.813230000000     0.443730000000     0.739340000000    -1.025      
O        O      0.813230000000     0.003700000000     0.943730000000    -1.025      
O        O      0.943730000000     0.239340000000     0.813230000000    -1.025      
O        O      0.503700000000     0.313230000000     0.739340000000    -1.025      
O        O      0.739340000000     0.443730000000     0.503700000000    -1.025      
O        O      0.943730000000     0.003700000000     0.739340000000    -1.025      
O        O      0.813230000000     0.239340000000     0.503700000000    -1.025      
O        O      0.739340000000     0.313230000000     0.943730000000    -1.025      
O        O      0.503700000000     0.443730000000     0.813230000000    -1.025      
Cu       Cu     0.534930000000     0.750000000000     0.250000000000     0          
Cu       Cu     0.750000000000     0.534930000000     0.465070000000     0          
Cu       Cu     0.750000000000     0.965070000000     0.034930000000     0          
Cu       Cu     0.965070000000     0.750000000000     0.250000000000     0          
Cu       Cu     0.534930000000     0.750000000000     0.465070000000     0          
Cu       Cu     0.750000000000     0.965070000000     0.250000000000     0          
Cu       Cu     0.750000000000     0.534930000000     0.250000000000     0          
Cu       Cu     0.965070000000     0.750000000000     0.034930000000     0          
Cu       Cu     0.534930000000     0.965070000000     0.250000000000     0          
Cu       Cu     0.750000000000     0.750000000000     0.034930000000     0          
Cu       Cu     0.750000000000     0.750000000000     0.465070000000     0          
Cu       Cu     0.965070000000     0.534930000000     0.250000000000     0          
H        H      0.886300000000     0.733700000000     0.386300000000     0          
H        H      0.733700000000     0.886300000000     0.493700000000     0          
H        H      0.886300000000     0.993700000000     0.386300000000     0          
H        H      0.993700000000     0.886300000000     0.233700000000     0          
H        H      0.886300000000     0.886300000000     0.493700000000     0          
H        H      0.733700000000     0.993700000000     0.386300000000     0          
H        H      0.886300000000     0.886300000000     0.233700000000     0          
H        H      0.993700000000     0.733700000000     0.386300000000     0          
H        H      0.886300000000     0.993700000000     0.233700000000     0          
H        H      0.733700000000     0.886300000000     0.386300000000     0          
H        H      0.886300000000     0.733700000000     0.493700000000     0          
H        H      0.993700000000     0.886300000000     0.386300000000     0          
H        H      0.766300000000     0.613700000000     0.113700000000     0          
H        H      0.613700000000     0.766300000000     0.006300000000     0          
H        H      0.506300000000     0.613700000000     0.113700000000     0          
H        H      0.613700000000     0.506300000000     0.266300000000     0          
H        H      0.613700000000     0.613700000000     0.006300000000     0          
H        H      0.506300000000     0.766300000000     0.113700000000     0          
H        H      0.613700000000     0.613700000000     0.266300000000     0          
H        H      0.766300000000     0.506300000000     0.113700000000     0          
H        H      0.506300000000     0.613700000000     0.266300000000     0          
H        H      0.613700000000     0.766300000000     0.113700000000     0          
H        H      0.766300000000     0.613700000000     0.006300000000     0          
H        H      0.613700000000     0.506300000000     0.113700000000     0          
C        C      0.965450000000     0.737130000000     0.331970000000     0          
C        C      0.943700000000     0.733560000000     0.379040000000     0          
C        C      0.737130000000     0.965450000000     0.465450000000     0          
C        C      0.733560000000     0.943700000000     0.443700000000     0          
C        C      0.831970000000     0.965450000000     0.465450000000     0          
C        C      0.879040000000     0.943700000000     0.443700000000     0          
C        C      0.965450000000     0.831970000000     0.237130000000     0          
C        C      0.943700000000     0.879040000000     0.233560000000     0          
C        C      0.965450000000     0.831970000000     0.465450000000     0          
C        C      0.943700000000     0.879040000000     0.443700000000     0          
C        C      0.737130000000     0.965450000000     0.331970000000     0          
C        C      0.733560000000     0.943700000000     0.379040000000     0          
C        C      0.831970000000     0.965450000000     0.237130000000     0          
C        C      0.879040000000     0.943700000000     0.233560000000     0          
C        C      0.965450000000     0.737130000000     0.465450000000     0          
C        C      0.943700000000     0.733560000000     0.443700000000     0          
C        C      0.965450000000     0.965450000000     0.237130000000     0          
C        C      0.943700000000     0.943700000000     0.233560000000     0          
C        C      0.737130000000     0.831970000000     0.465450000000     0          
C        C      0.733560000000     0.879040000000     0.443700000000     0          
C        C      0.831970000000     0.737130000000     0.465450000000     0          
C        C      0.879040000000     0.733560000000     0.443700000000     0          
C        C      0.965450000000     0.965450000000     0.331970000000     0          
C        C      0.943700000000     0.943700000000     0.379040000000     0          
C        C      0.762870000000     0.534550000000     0.168030000000     0          
C        C      0.766440000000     0.556300000000     0.120960000000     0          
C        C      0.534550000000     0.762870000000     0.034550000000     0          
C        C      0.556300000000     0.766440000000     0.056300000000     0          
C        C      0.534550000000     0.668030000000     0.034550000000     0          
C        C      0.556300000000     0.620960000000     0.056300000000     0          
C        C      0.668030000000     0.534550000000     0.262870000000     0          
C        C      0.620960000000     0.556300000000     0.266440000000     0          
C        C      0.668030000000     0.534550000000     0.034550000000     0          
C        C      0.620960000000     0.556300000000     0.056300000000     0          
C        C      0.534550000000     0.762870000000     0.168030000000     0          
C        C      0.556300000000     0.766440000000     0.120960000000     0          
C        C      0.534550000000     0.668030000000     0.262870000000     0          
C        C      0.556300000000     0.620960000000     0.266440000000     0          
C        C      0.762870000000     0.534550000000     0.034550000000     0          
C        C      0.766440000000     0.556300000000     0.056300000000     0          
C        C      0.534550000000     0.534550000000     0.262870000000     0          
C        C      0.556300000000     0.556300000000     0.266440000000     0          
C        C      0.668030000000     0.762870000000     0.034550000000     0          
C        C      0.620960000000     0.766440000000     0.056300000000     0          
C        C      0.762870000000     0.668030000000     0.034550000000     0          
C        C      0.766440000000     0.620960000000     0.056300000000     0          
C        C      0.534550000000     0.534550000000     0.168030000000     0          
C        C      0.556300000000     0.556300000000     0.120960000000     0          
C        C      0.900750000000     0.733610000000     0.400750000000     0          
C        C      0.733610000000     0.900750000000     0.464890000000     0          
C        C      0.900750000000     0.964890000000     0.400750000000     0          
C        C      0.964890000000     0.900750000000     0.233610000000     0          
C        C      0.900750000000     0.900750000000     0.464890000000     0          
C        C      0.733610000000     0.964890000000     0.400750000000     0          
C        C      0.900750000000     0.900750000000     0.233610000000     0          
C        C      0.964890000000     0.733610000000     0.400750000000     0          
C        C      0.900750000000     0.964890000000     0.233610000000     0          
C        C      0.733610000000     0.900750000000     0.400750000000     0          
C        C      0.900750000000     0.733610000000     0.464890000000     0          
C        C      0.964890000000     0.900750000000     0.400750000000     0          
C        C      0.766390000000     0.599250000000     0.099250000000     0          
C        C      0.599250000000     0.766390000000     0.035110000000     0          
C        C      0.535110000000     0.599250000000     0.099250000000     0          
C        C      0.599250000000     0.535110000000     0.266390000000     0          
C        C      0.599250000000     0.599250000000     0.035110000000     0          
C        C      0.535110000000     0.766390000000     0.099250000000     0          
C        C      0.599250000000     0.599250000000     0.266390000000     0          
C        C      0.766390000000     0.535110000000     0.099250000000     0          
C        C      0.535110000000     0.599250000000     0.266390000000     0          
C        C      0.599250000000     0.766390000000     0.099250000000     0          
C        C      0.766390000000     0.599250000000     0.035110000000     0          
C        C      0.599250000000     0.535110000000     0.099250000000     0          
O        O      0.503700000000     0.739340000000     0.313230000000    -1.025      
O        O      0.739340000000     0.503700000000     0.443730000000    -1.025      
O        O      0.813230000000     0.943730000000     0.003700000000    -1.025      
O        O      0.943730000000     0.813230000000     0.239340000000    -1.025      
O        O      0.503700000000     0.813230000000     0.443730000000    -1.025      
O        O      0.739340000000     0.943730000000     0.313230000000    -1.025      
O        O      0.813230000000     0.503700000000     0.239340000000    -1.025      
O        O      0.943730000000     0.739340000000     0.003700000000    -1.025      
O        O      0.503700000000     0.943730000000     0.239340000000    -1.025      
O        O      0.739340000000     0.813230000000     0.003700000000    -1.025      
O        O      0.813230000000     0.739340000000     0.443730000000    -1.025      
O        O      0.943730000000     0.503700000000     0.313230000000    -1.025      
O        O      0.760660000000     0.996300000000     0.186770000000    -1.025      
O        O      0.996300000000     0.760660000000     0.056270000000    -1.025      
O        O      0.556270000000     0.686770000000     0.496300000000    -1.025      
O        O      0.686770000000     0.556270000000     0.260660000000    -1.025      
O        O      0.686770000000     0.996300000000     0.056270000000    -1.025      
O        O      0.556270000000     0.760660000000     0.186770000000    -1.025      
O        O      0.996300000000     0.686770000000     0.260660000000    -1.025      
O        O      0.760660000000     0.556270000000     0.496300000000    -1.025      
O        O      0.556270000000     0.996300000000     0.260660000000    -1.025      
O        O      0.686770000000     0.760660000000     0.496300000000    -1.025      
O        O      0.760660000000     0.686770000000     0.056270000000    -1.025      
O        O      0.996300000000     0.556270000000     0.186770000000    -1.025      
O        O      0.996300000000     0.760660000000     0.186770000000    -1.025      
O        O      0.760660000000     0.996300000000     0.056270000000    -1.025      
O        O      0.686770000000     0.556270000000     0.496300000000    -1.025      
O        O      0.556270000000     0.686770000000     0.260660000000    -1.025      
O        O      0.996300000000     0.686770000000     0.056270000000    -1.025      
O        O      0.760660000000     0.556270000000     0.186770000000    -1.025      
O        O      0.686770000000     0.996300000000     0.260660000000    -1.025      
O        O      0.556270000000     0.760660000000     0.496300000000    -1.025      
O        O      0.996300000000     0.556270000000     0.260660000000    -1.025      
O        O      0.760660000000     0.686770000000     0.496300000000    -1.025      
O        O      0.686770000000     0.760660000000     0.056270000000    -1.025      
O        O      0.556270000000     0.996300000000     0.186770000000    -1.025      
O        O      0.739340000000     0.503700000000     0.313230000000    -1.025      
O        O      0.503700000000     0.739340000000     0.443730000000    -1.025      
O        O      0.943730000000     0.813230000000     0.003700000000    -1.025      
O        O      0.813230000000     0.943730000000     0.239340000000    -1.025      
O        O      0.813230000000     0.503700000000     0.443730000000    -1.025      
O        O      0.943730000000     0.739340000000     0.313230000000    -1.025      
O        O      0.503700000000     0.813230000000     0.239340000000    -1.025      
O        O      0.739340000000     0.943730000000     0.003700000000    -1.025      
O        O      0.943730000000     0.503700000000     0.239340000000    -1.025      
O        O      0.813230000000     0.739340000000     0.003700000000    -1.025      
O        O      0.739340000000     0.813230000000     0.443730000000    -1.025      
O        O      0.503700000000     0.943730000000     0.313230000000    -1.025      
Cu       Cu     0.534930000000     0.750000000000     0.750000000000     0          
Cu       Cu     0.750000000000     0.534930000000     0.965070000000     0          
Cu       Cu     0.750000000000     0.965070000000     0.534930000000     0          
Cu       Cu     0.965070000000     0.750000000000     0.750000000000     0          
Cu       Cu     0.534930000000     0.750000000000     0.965070000000     0          
Cu       Cu     0.750000000000     0.965070000000     0.750000000000     0          
Cu       Cu     0.750000000000     0.534930000000     0.750000000000     0          
Cu       Cu     0.965070000000     0.750000000000     0.534930000000     0          
Cu       Cu     0.534930000000     0.965070000000     0.750000000000     0          
Cu       Cu     0.750000000000     0.750000000000     0.534930000000     0          
Cu       Cu     0.750000000000     0.750000000000     0.965070000000     0          
Cu       Cu     0.965070000000     0.534930000000     0.750000000000     0          
H        H      0.886300000000     0.733700000000     0.886300000000     0          
H        H      0.733700000000     0.886300000000     0.993700000000     0          
H        H      0.886300000000     0.993700000000     0.886300000000     0          
H        H      0.993700000000     0.886300000000     0.733700000000     0          
H        H      0.886300000000     0.886300000000     0.993700000000     0          
H        H      0.733700000000     0.993700000000     0.886300000000     0          
H        H      0.886300000000     0.886300000000     0.733700000000     0          
H        H      0.993700000000     0.733700000000     0.886300000000     0          
H        H      0.886300000000     0.993700000000     0.733700000000     0          
H        H      0.733700000000     0.886300000000     0.886300000000     0          
H        H      0.886300000000     0.733700000000     0.993700000000     0          
H        H      0.993700000000     0.886300000000     0.886300000000     0          
H        H      0.766300000000     0.613700000000     0.613700000000     0          
H        H      0.613700000000     0.766300000000     0.506300000000     0          
H        H      0.506300000000     0.613700000000     0.613700000000     0          
H        H      0.613700000000     0.506300000000     0.766300000000     0          
H        H      0.613700000000     0.613700000000     0.506300000000     0          
H        H      0.506300000000     0.766300000000     0.613700000000     0          
H        H      0.613700000000     0.613700000000     0.766300000000     0          
H        H      0.766300000000     0.506300000000     0.613700000000     0          
H        H      0.506300000000     0.613700000000     0.766300000000     0          
H        H      0.613700000000     0.766300000000     0.613700000000     0          
H        H      0.766300000000     0.613700000000     0.506300000000     0          
H        H      0.613700000000     0.506300000000     0.613700000000     0          
C        C      0.965450000000     0.737130000000     0.831970000000     0          
C        C      0.943700000000     0.733560000000     0.879040000000     0          
C        C      0.737130000000     0.965450000000     0.965450000000     0          
C        C      0.733560000000     0.943700000000     0.943700000000     0          
C        C      0.831970000000     0.965450000000     0.965450000000     0          
C        C      0.879040000000     0.943700000000     0.943700000000     0          
C        C      0.965450000000     0.831970000000     0.737130000000     0          
C        C      0.943700000000     0.879040000000     0.733560000000     0          
C        C      0.965450000000     0.831970000000     0.965450000000     0          
C        C      0.943700000000     0.879040000000     0.943700000000     0          
C        C      0.737130000000     0.965450000000     0.831970000000     0          
C        C      0.733560000000     0.943700000000     0.879040000000     0          
C        C      0.831970000000     0.965450000000     0.737130000000     0          
C        C      0.879040000000     0.943700000000     0.733560000000     0          
C        C      0.965450000000     0.737130000000     0.965450000000     0          
C        C      0.943700000000     0.733560000000     0.943700000000     0          
C        C      0.965450000000     0.965450000000     0.737130000000     0          
C        C      0.943700000000     0.943700000000     0.733560000000     0          
C        C      0.737130000000     0.831970000000     0.965450000000     0          
C        C      0.733560000000     0.879040000000     0.943700000000     0          
C        C      0.831970000000     0.737130000000     0.965450000000     0          
C        C      0.879040000000     0.733560000000     0.943700000000     0          
C        C      0.965450000000     0.965450000000     0.831970000000     0          
C        C      0.943700000000     0.943700000000     0.879040000000     0          
C        C      0.762870000000     0.534550000000     0.668030000000     0          
C        C      0.766440000000     0.556300000000     0.620960000000     0          
C        C      0.534550000000     0.762870000000     0.534550000000     0          
C        C      0.556300000000     0.766440000000     0.556300000000     0          
C        C      0.534550000000     0.668030000000     0.534550000000     0          
C        C      0.556300000000     0.620960000000     0.556300000000     0          
C        C      0.668030000000     0.534550000000     0.762870000000     0          
C        C      0.620960000000     0.556300000000     0.766440000000     0          
C        C      0.668030000000     0.534550000000     0.534550000000     0          
C        C      0.620960000000     0.556300000000     0.556300000000     0          
C        C      0.534550000000     0.762870000000     0.668030000000     0          
C        C      0.556300000000     0.766440000000     0.620960000000     0          
C        C      0.534550000000     0.668030000000     0.762870000000     0          
C        C      0.556300000000     0.620960000000     0.766440000000     0          
C        C      0.762870000000     0.534550000000     0.534550000000     0          
C        C      0.766440000000     0.556300000000     0.556300000000     0          
C        C      0.534550000000     0.534550000000     0.762870000000     0          
C        C      0.556300000000     0.556300000000     0.766440000000     0          
C        C      0.668030000000     0.762870000000     0.534550000000     0          
C        C      0.620960000000     0.766440000000     0.556300000000     0          
C        C      0.762870000000     0.668030000000     0.534550000000     0          
C        C      0.766440000000     0.620960000000     0.556300000000     0          
C        C      0.534550000000     0.534550000000     0.668030000000     0          
C        C      0.556300000000     0.556300000000     0.620960000000     0          
C        C      0.900750000000     0.733610000000     0.900750000000     0          
C        C      0.733610000000     0.900750000000     0.964890000000     0          
C        C      0.900750000000     0.964890000000     0.900750000000     0          
C        C      0.964890000000     0.900750000000     0.733610000000     0          
C        C      0.900750000000     0.900750000000     0.964890000000     0          
C        C      0.733610000000     0.964890000000     0.900750000000     0          
C        C      0.900750000000     0.900750000000     0.733610000000     0          
C        C      0.964890000000     0.733610000000     0.900750000000     0          
C        C      0.900750000000     0.964890000000     0.733610000000     0          
C        C      0.733610000000     0.900750000000     0.900750000000     0          
C        C      0.900750000000     0.733610000000     0.964890000000     0          
C        C      0.964890000000     0.900750000000     0.900750000000     0          
C        C      0.766390000000     0.599250000000     0.599250000000     0          
C        C      0.599250000000     0.766390000000     0.535110000000     0          
C        C      0.535110000000     0.599250000000     0.599250000000     0          
C        C      0.599250000000     0.535110000000     0.766390000000     0          
C        C      0.599250000000     0.599250000000     0.535110000000     0          
C        C      0.535110000000     0.766390000000     0.599250000000     0          
C        C      0.599250000000     0.599250000000     0.766390000000     0          
C        C      0.766390000000     0.535110000000     0.599250000000     0          
C        C      0.535110000000     0.599250000000     0.766390000000     0          
C        C      0.599250000000     0.766390000000     0.599250000000     0          
C        C      0.766390000000     0.599250000000     0.535110000000     0          
C        C      0.599250000000     0.535110000000     0.599250000000     0          
O        O      0.503700000000     0.739340000000     0.813230000000    -1.025      
O        O      0.739340000000     0.503700000000     0.943730000000    -1.025      
O        O      0.813230000000     0.943730000000     0.503700000000    -1.025      
O        O      0.943730000000     0.813230000000     0.739340000000    -1.025      
O        O      0.503700000000     0.813230000000     0.943730000000    -1.025      
O        O      0.739340000000     0.943730000000     0.813230000000    -1.025      
O        O      0.813230000000     0.503700000000     0.739340000000    -1.025      
O        O      0.943730000000     0.739340000000     0.503700000000    -1.025      
O        O      0.503700000000     0.943730000000     0.739340000000    -1.025      
O        O      0.739340000000     0.813230000000     0.503700000000    -1.025      
O        O      0.813230000000     0.739340000000     0.943730000000    -1.025      
O        O      0.943730000000     0.503700000000     0.813230000000    -1.025      
O        O      0.760660000000     0.996300000000     0.686770000000    -1.025      
O        O      0.996300000000     0.760660000000     0.556270000000    -1.025      
O        O      0.556270000000     0.686770000000     0.996300000000    -1.025      
O        O      0.686770000000     0.556270000000     0.760660000000    -1.025      
O        O      0.686770000000     0.996300000000     0.556270000000    -1.025      
O        O      0.556270000000     0.760660000000     0.686770000000    -1.025      
O        O      0.996300000000     0.686770000000     0.760660000000    -1.025      
O        O      0.760660000000     0.556270000000     0.996300000000    -1.025      
O        O      0.556270000000     0.996300000000     0.760660000000    -1.025      
O        O      0.686770000000     0.760660000000     0.996300000000    -1.025      
O        O      0.760660000000     0.686770000000     0.556270000000    -1.025      
O        O      0.996300000000     0.556270000000     0.686770000000    -1.025      
O        O      0.996300000000     0.760660000000     0.686770000000    -1.025      
O        O      0.760660000000     0.996300000000     0.556270000000    -1.025      
O        O      0.686770000000     0.556270000000     0.996300000000    -1.025      
O        O      0.556270000000     0.686770000000     0.760660000000    -1.025      
O        O      0.996300000000     0.686770000000     0.556270000000    -1.025      
O        O      0.760660000000     0.556270000000     0.686770000000    -1.025      
O        O      0.686770000000     0.996300000000     0.760660000000    -1.025      
O        O      0.556270000000     0.760660000000     0.996300000000    -1.025      
O        O      0.996300000000     0.556270000000     0.760660000000    -1.025      
O        O      0.760660000000     0.686770000000     0.996300000000    -1.025      
O        O      0.686770000000     0.760660000000     0.556270000000    -1.025      
O        O      0.556270000000     0.996300000000     0.686770000000    -1.025      
O        O      0.739340000000     0.503700000000     0.813230000000    -1.025      
O        O      0.503700000000     0.739340000000     0.943730000000    -1.025      
O        O      0.943730000000     0.813230000000     0.503700000000    -1.025      
O        O      0.813230000000     0.943730000000     0.739340000000    -1.025      
O        O      0.813230000000     0.503700000000     0.943730000000    -1.025      
O        O      0.943730000000     0.739340000000     0.813230000000    -1.025      
O        O      0.503700000000     0.813230000000     0.739340000000    -1.025      
O        O      0.739340000000     0.943730000000     0.503700000000    -1.025      
O        O      0.943730000000     0.503700000000     0.739340000000    -1.025      
O        O      0.813230000000     0.739340000000     0.503700000000    -1.025      
O        O      0.739340000000     0.813230000000     0.943730000000    -1.025      
O        O      0.503700000000     0.943730000000     0.813230000000    -1.025      


