data_[CoreMOF]XADDEN_manual

_audit_creation_method RASPA-1.0
_audit_creation_date 2025-1-23
_audit_author_name ''

_cell_length_a    37.302
_cell_length_b    37.302
_cell_length_c    37.302
_cell_angle_alpha 60
_cell_angle_beta  60
_cell_angle_gamma 60
_cell_volume      36701.3

_symmetry_cell_setting          triclinic
_symmetry_space_group_name_Hall 'P 1'
_symmetry_space_group_name_H-M  'P 1'
_symmetry_Int_Tables_number     1

_symmetry_equiv_pos_as_xyz 'x,y,z'

loop_
_atom_site_label
_atom_site_type_symbol
_atom_site_fract_x
_atom_site_fract_y
_atom_site_fract_z
_atom_site_charge
Cu1      Cu     0.034930000000     0.250000000000     0.250000000000     0          
Cu2      Cu     0.250000000000     0.034930000000     0.465070000000     0          
Cu3      Cu     0.250000000000     0.465070000000     0.034930000000     0          
Cu4      Cu     0.465070000000     0.250000000000     0.250000000000     0          
Cu5      Cu     0.034930000000     0.250000000000     0.465070000000     0          
Cu6      Cu     0.250000000000     0.465070000000     0.250000000000     0          
Cu7      Cu     0.250000000000     0.034930000000     0.250000000000     0          
Cu8      Cu     0.465070000000     0.250000000000     0.034930000000     0          
Cu9      Cu     0.034930000000     0.465070000000     0.250000000000     0          
Cu10     Cu     0.250000000000     0.250000000000     0.034930000000     0          
Cu11     Cu     0.250000000000     0.250000000000     0.465070000000     0          
Cu12     Cu     0.465070000000     0.034930000000     0.250000000000     0          
H1       H      0.386300000000     0.233700000000     0.386300000000     0          
H2       H      0.233700000000     0.386300000000     0.493700000000     0          
H3       H      0.386300000000     0.493700000000     0.386300000000     0          
H4       H      0.493700000000     0.386300000000     0.233700000000     0          
H5       H      0.386300000000     0.386300000000     0.493700000000     0          
H6       H      0.233700000000     0.493700000000     0.386300000000     0          
H7       H      0.386300000000     0.386300000000     0.233700000000     0          
H8       H      0.493700000000     0.233700000000     0.386300000000     0          
H9       H      0.386300000000     0.493700000000     0.233700000000     0          
H10      H      0.233700000000     0.386300000000     0.386300000000     0          
H11      H      0.386300000000     0.233700000000     0.493700000000     0          
H12      H      0.493700000000     0.386300000000     0.386300000000     0          
H13      H      0.266300000000     0.113700000000     0.113700000000     0          
H14      H      0.113700000000     0.266300000000     0.006300000000     0          
H15      H      0.006300000000     0.113700000000     0.113700000000     0          
H16      H      0.113700000000     0.006300000000     0.266300000000     0          
H17      H      0.113700000000     0.113700000000     0.006300000000     0          
H18      H      0.006300000000     0.266300000000     0.113700000000     0          
H19      H      0.113700000000     0.113700000000     0.266300000000     0          
H20      H      0.266300000000     0.006300000000     0.113700000000     0          
H21      H      0.006300000000     0.113700000000     0.266300000000     0          
H22      H      0.113700000000     0.266300000000     0.113700000000     0          
H23      H      0.266300000000     0.113700000000     0.006300000000     0          
H24      H      0.113700000000     0.006300000000     0.113700000000     0          
C1       C      0.465450000000     0.237130000000     0.331970000000     0          
C2       C      0.443700000000     0.233560000000     0.379040000000     0          
C3       C      0.237130000000     0.465450000000     0.465450000000     0          
C4       C      0.233560000000     0.443700000000     0.443700000000     0          
C5       C      0.331970000000     0.465450000000     0.465450000000     0          
C6       C      0.379040000000     0.443700000000     0.443700000000     0          
C7       C      0.465450000000     0.331970000000     0.237130000000     0          
C8       C      0.443700000000     0.379040000000     0.233560000000     0          
C9       C      0.465450000000     0.331970000000     0.465450000000     0          
C10      C      0.443700000000     0.379040000000     0.443700000000     0          
C11      C      0.237130000000     0.465450000000     0.331970000000     0          
C12      C      0.233560000000     0.443700000000     0.379040000000     0          
C13      C      0.331970000000     0.465450000000     0.237130000000     0          
C14      C      0.379040000000     0.443700000000     0.233560000000     0          
C15      C      0.465450000000     0.237130000000     0.465450000000     0          
C16      C      0.443700000000     0.233560000000     0.443700000000     0          
C17      C      0.465450000000     0.465450000000     0.237130000000     0          
C18      C      0.443700000000     0.443700000000     0.233560000000     0          
C19      C      0.237130000000     0.331970000000     0.465450000000     0          
C20      C      0.233560000000     0.379040000000     0.443700000000     0          
C21      C      0.331970000000     0.237130000000     0.465450000000     0          
C22      C      0.379040000000     0.233560000000     0.443700000000     0          
C23      C      0.465450000000     0.465450000000     0.331970000000     0          
C24      C      0.443700000000     0.443700000000     0.379040000000     0          
C25      C      0.262870000000     0.034550000000     0.168030000000     0          
C26      C      0.266440000000     0.056300000000     0.120960000000     0          
C27      C      0.034550000000     0.262870000000     0.034550000000     0          
C28      C      0.056300000000     0.266440000000     0.056300000000     0          
C29      C      0.034550000000     0.168030000000     0.034550000000     0          
C30      C      0.056300000000     0.120960000000     0.056300000000     0          
C31      C      0.168030000000     0.034550000000     0.262870000000     0          
C32      C      0.120960000000     0.056300000000     0.266440000000     0          
C33      C      0.168030000000     0.034550000000     0.034550000000     0          
C34      C      0.120960000000     0.056300000000     0.056300000000     0          
C35      C      0.034550000000     0.262870000000     0.168030000000     0          
C36      C      0.056300000000     0.266440000000     0.120960000000     0          
C37      C      0.034550000000     0.168030000000     0.262870000000     0          
C38      C      0.056300000000     0.120960000000     0.266440000000     0          
C39      C      0.262870000000     0.034550000000     0.034550000000     0          
C40      C      0.266440000000     0.056300000000     0.056300000000     0          
C41      C      0.034550000000     0.034550000000     0.262870000000     0          
C42      C      0.056300000000     0.056300000000     0.266440000000     0          
C43      C      0.168030000000     0.262870000000     0.034550000000     0          
C44      C      0.120960000000     0.266440000000     0.056300000000     0          
C45      C      0.262870000000     0.168030000000     0.034550000000     0          
C46      C      0.266440000000     0.120960000000     0.056300000000     0          
C47      C      0.034550000000     0.034550000000     0.168030000000     0          
C48      C      0.056300000000     0.056300000000     0.120960000000     0          
C49      C      0.400750000000     0.233610000000     0.400750000000     0          
C50      C      0.233610000000     0.400750000000     0.464890000000     0          
C51      C      0.400750000000     0.464890000000     0.400750000000     0          
C52      C      0.464890000000     0.400750000000     0.233610000000     0          
C53      C      0.400750000000     0.400750000000     0.464890000000     0          
C54      C      0.233610000000     0.464890000000     0.400750000000     0          
C55      C      0.400750000000     0.400750000000     0.233610000000     0          
C56      C      0.464890000000     0.233610000000     0.400750000000     0          
C57      C      0.400750000000     0.464890000000     0.233610000000     0          
C58      C      0.233610000000     0.400750000000     0.400750000000     0          
C59      C      0.400750000000     0.233610000000     0.464890000000     0          
C60      C      0.464890000000     0.400750000000     0.400750000000     0          
C61      C      0.266390000000     0.099250000000     0.099250000000     0          
C62      C      0.099250000000     0.266390000000     0.035110000000     0          
C63      C      0.035110000000     0.099250000000     0.099250000000     0          
C64      C      0.099250000000     0.035110000000     0.266390000000     0          
C65      C      0.099250000000     0.099250000000     0.035110000000     0          
C66      C      0.035110000000     0.266390000000     0.099250000000     0          
C67      C      0.099250000000     0.099250000000     0.266390000000     0          
C68      C      0.266390000000     0.035110000000     0.099250000000     0          
C69      C      0.035110000000     0.099250000000     0.266390000000     0          
C70      C      0.099250000000     0.266390000000     0.099250000000     0          
C71      C      0.266390000000     0.099250000000     0.035110000000     0          
C72      C      0.099250000000     0.035110000000     0.099250000000     0          
O1       O      0.003700000000     0.239340000000     0.313230000000     0          
O2       O      0.239340000000     0.003700000000     0.443730000000     0          
O3       O      0.313230000000     0.443730000000     0.003700000000     0          
O4       O      0.443730000000     0.313230000000     0.239340000000     0          
O5       O      0.003700000000     0.313230000000     0.443730000000     0          
O6       O      0.239340000000     0.443730000000     0.313230000000     0          
O7       O      0.313230000000     0.003700000000     0.239340000000     0          
O8       O      0.443730000000     0.239340000000     0.003700000000     0          
O9       O      0.003700000000     0.443730000000     0.239340000000     0          
O10      O      0.239340000000     0.313230000000     0.003700000000     0          
O11      O      0.313230000000     0.239340000000     0.443730000000     0          
O12      O      0.443730000000     0.003700000000     0.313230000000     0          
O13      O      0.260660000000     0.496300000000     0.186770000000     0          
O14      O      0.496300000000     0.260660000000     0.056270000000     0          
O15      O      0.056270000000     0.186770000000     0.496300000000     0          
O16      O      0.186770000000     0.056270000000     0.260660000000     0          
O17      O      0.186770000000     0.496300000000     0.056270000000     0          
O18      O      0.056270000000     0.260660000000     0.186770000000     0          
O19      O      0.496300000000     0.186770000000     0.260660000000     0          
O20      O      0.260660000000     0.056270000000     0.496300000000     0          
O21      O      0.056270000000     0.496300000000     0.260660000000     0          
O22      O      0.186770000000     0.260660000000     0.496300000000     0          
O23      O      0.260660000000     0.186770000000     0.056270000000     0          
O24      O      0.496300000000     0.056270000000     0.186770000000     0          
O25      O      0.496300000000     0.260660000000     0.186770000000     0          
O26      O      0.260660000000     0.496300000000     0.056270000000     0          
O27      O      0.186770000000     0.056270000000     0.496300000000     0          
O28      O      0.056270000000     0.186770000000     0.260660000000     0          
O29      O      0.496300000000     0.186770000000     0.056270000000     0          
O30      O      0.260660000000     0.056270000000     0.186770000000     0          
O31      O      0.186770000000     0.496300000000     0.260660000000     0          
O32      O      0.056270000000     0.260660000000     0.496300000000     0          
O33      O      0.496300000000     0.056270000000     0.260660000000     0          
O34      O      0.260660000000     0.186770000000     0.496300000000     0          
O35      O      0.186770000000     0.260660000000     0.056270000000     0          
O36      O      0.056270000000     0.496300000000     0.186770000000     0          
O37      O      0.239340000000     0.003700000000     0.313230000000     0          
O38      O      0.003700000000     0.239340000000     0.443730000000     0          
O39      O      0.443730000000     0.313230000000     0.003700000000     0          
O40      O      0.313230000000     0.443730000000     0.239340000000     0          
O41      O      0.313230000000     0.003700000000     0.443730000000     0          
O42      O      0.443730000000     0.239340000000     0.313230000000     0          
O43      O      0.003700000000     0.313230000000     0.239340000000     0          
O44      O      0.239340000000     0.443730000000     0.003700000000     0          
O45      O      0.443730000000     0.003700000000     0.239340000000     0          
O46      O      0.313230000000     0.239340000000     0.003700000000     0          
O47      O      0.239340000000     0.313230000000     0.443730000000     0          
O48      O      0.003700000000     0.443730000000     0.313230000000     0          
Cu1      Cu     0.034930000000     0.250000000000     0.750000000000     0          
Cu2      Cu     0.250000000000     0.034930000000     0.965070000000     0          
Cu3      Cu     0.250000000000     0.465070000000     0.534930000000     0          
Cu4      Cu     0.465070000000     0.250000000000     0.750000000000     0          
Cu5      Cu     0.034930000000     0.250000000000     0.965070000000     0          
Cu6      Cu     0.250000000000     0.465070000000     0.750000000000     0          
Cu7      Cu     0.250000000000     0.034930000000     0.750000000000     0          
Cu8      Cu     0.465070000000     0.250000000000     0.534930000000     0          
Cu9      Cu     0.034930000000     0.465070000000     0.750000000000     0          
Cu10     Cu     0.250000000000     0.250000000000     0.534930000000     0          
Cu11     Cu     0.250000000000     0.250000000000     0.965070000000     0          
Cu12     Cu     0.465070000000     0.034930000000     0.750000000000     0          
H1       H      0.386300000000     0.233700000000     0.886300000000     0          
H2       H      0.233700000000     0.386300000000     0.993700000000     0          
H3       H      0.386300000000     0.493700000000     0.886300000000     0          
H4       H      0.493700000000     0.386300000000     0.733700000000     0          
H5       H      0.386300000000     0.386300000000     0.993700000000     0          
H6       H      0.233700000000     0.493700000000     0.886300000000     0          
H7       H      0.386300000000     0.386300000000     0.733700000000     0          
H8       H      0.493700000000     0.233700000000     0.886300000000     0          
H9       H      0.386300000000     0.493700000000     0.733700000000     0          
H10      H      0.233700000000     0.386300000000     0.886300000000     0          
H11      H      0.386300000000     0.233700000000     0.993700000000     0          
H12      H      0.493700000000     0.386300000000     0.886300000000     0          
H13      H      0.266300000000     0.113700000000     0.613700000000     0          
H14      H      0.113700000000     0.266300000000     0.506300000000     0          
H15      H      0.006300000000     0.113700000000     0.613700000000     0          
H16      H      0.113700000000     0.006300000000     0.766300000000     0          
H17      H      0.113700000000     0.113700000000     0.506300000000     0          
H18      H      0.006300000000     0.266300000000     0.613700000000     0          
H19      H      0.113700000000     0.113700000000     0.766300000000     0          
H20      H      0.266300000000     0.006300000000     0.613700000000     0          
H21      H      0.006300000000     0.113700000000     0.766300000000     0          
H22      H      0.113700000000     0.266300000000     0.613700000000     0          
H23      H      0.266300000000     0.113700000000     0.506300000000     0          
H24      H      0.113700000000     0.006300000000     0.613700000000     0          
C1       C      0.465450000000     0.237130000000     0.831970000000     0          
C2       C      0.443700000000     0.233560000000     0.879040000000     0          
C3       C      0.237130000000     0.465450000000     0.965450000000     0          
C4       C      0.233560000000     0.443700000000     0.943700000000     0          
C5       C      0.331970000000     0.465450000000     0.965450000000     0          
C6       C      0.379040000000     0.443700000000     0.943700000000     0          
C7       C      0.465450000000     0.331970000000     0.737130000000     0          
C8       C      0.443700000000     0.379040000000     0.733560000000     0          
C9       C      0.465450000000     0.331970000000     0.965450000000     0          
C10      C      0.443700000000     0.379040000000     0.943700000000     0          
C11      C      0.237130000000     0.465450000000     0.831970000000     0          
C12      C      0.233560000000     0.443700000000     0.879040000000     0          
C13      C      0.331970000000     0.465450000000     0.737130000000     0          
C14      C      0.379040000000     0.443700000000     0.733560000000     0          
C15      C      0.465450000000     0.237130000000     0.965450000000     0          
C16      C      0.443700000000     0.233560000000     0.943700000000     0          
C17      C      0.465450000000     0.465450000000     0.737130000000     0          
C18      C      0.443700000000     0.443700000000     0.733560000000     0          
C19      C      0.237130000000     0.331970000000     0.965450000000     0          
C20      C      0.233560000000     0.379040000000     0.943700000000     0          
C21      C      0.331970000000     0.237130000000     0.965450000000     0          
C22      C      0.379040000000     0.233560000000     0.943700000000     0          
C23      C      0.465450000000     0.465450000000     0.831970000000     0          
C24      C      0.443700000000     0.443700000000     0.879040000000     0          
C25      C      0.262870000000     0.034550000000     0.668030000000     0          
C26      C      0.266440000000     0.056300000000     0.620960000000     0          
C27      C      0.034550000000     0.262870000000     0.534550000000     0          
C28      C      0.056300000000     0.266440000000     0.556300000000     0          
C29      C      0.034550000000     0.168030000000     0.534550000000     0          
C30      C      0.056300000000     0.120960000000     0.556300000000     0          
C31      C      0.168030000000     0.034550000000     0.762870000000     0          
C32      C      0.120960000000     0.056300000000     0.766440000000     0          
C33      C      0.168030000000     0.034550000000     0.534550000000     0          
C34      C      0.120960000000     0.056300000000     0.556300000000     0          
C35      C      0.034550000000     0.262870000000     0.668030000000     0          
C36      C      0.056300000000     0.266440000000     0.620960000000     0          
C37      C      0.034550000000     0.168030000000     0.762870000000     0          
C38      C      0.056300000000     0.120960000000     0.766440000000     0          
C39      C      0.262870000000     0.034550000000     0.534550000000     0          
C40      C      0.266440000000     0.056300000000     0.556300000000     0          
C41      C      0.034550000000     0.034550000000     0.762870000000     0          
C42      C      0.056300000000     0.056300000000     0.766440000000     0          
C43      C      0.168030000000     0.262870000000     0.534550000000     0          
C44      C      0.120960000000     0.266440000000     0.556300000000     0          
C45      C      0.262870000000     0.168030000000     0.534550000000     0          
C46      C      0.266440000000     0.120960000000     0.556300000000     0          
C47      C      0.034550000000     0.034550000000     0.668030000000     0          
C48      C      0.056300000000     0.056300000000     0.620960000000     0          
C49      C      0.400750000000     0.233610000000     0.900750000000     0          
C50      C      0.233610000000     0.400750000000     0.964890000000     0          
C51      C      0.400750000000     0.464890000000     0.900750000000     0          
C52      C      0.464890000000     0.400750000000     0.733610000000     0          
C53      C      0.400750000000     0.400750000000     0.964890000000     0          
C54      C      0.233610000000     0.464890000000     0.900750000000     0          
C55      C      0.400750000000     0.400750000000     0.733610000000     0          
C56      C      0.464890000000     0.233610000000     0.900750000000     0          
C57      C      0.400750000000     0.464890000000     0.733610000000     0          
C58      C      0.233610000000     0.400750000000     0.900750000000     0          
C59      C      0.400750000000     0.233610000000     0.964890000000     0          
C60      C      0.464890000000     0.400750000000     0.900750000000     0          
C61      C      0.266390000000     0.099250000000     0.599250000000     0          
C62      C      0.099250000000     0.266390000000     0.535110000000     0          
C63      C      0.035110000000     0.099250000000     0.599250000000     0          
C64      C      0.099250000000     0.035110000000     0.766390000000     0          
C65      C      0.099250000000     0.099250000000     0.535110000000     0          
C66      C      0.035110000000     0.266390000000     0.599250000000     0          
C67      C      0.099250000000     0.099250000000     0.766390000000     0          
C68      C      0.266390000000     0.035110000000     0.599250000000     0          
C69      C      0.035110000000     0.099250000000     0.766390000000     0          
C70      C      0.099250000000     0.266390000000     0.599250000000     0          
C71      C      0.266390000000     0.099250000000     0.535110000000     0          
C72      C      0.099250000000     0.035110000000     0.599250000000     0          
O1       O      0.003700000000     0.239340000000     0.813230000000     0          
O2       O      0.239340000000     0.003700000000     0.943730000000     0          
O3       O      0.313230000000     0.443730000000     0.503700000000     0          
O4       O      0.443730000000     0.313230000000     0.739340000000     0          
O5       O      0.003700000000     0.313230000000     0.943730000000     0          
O6       O      0.239340000000     0.443730000000     0.813230000000     0          
O7       O      0.313230000000     0.003700000000     0.739340000000     0          
O8       O      0.443730000000     0.239340000000     0.503700000000     0          
O9       O      0.003700000000     0.443730000000     0.739340000000     0          
O10      O      0.239340000000     0.313230000000     0.503700000000     0          
O11      O      0.313230000000     0.239340000000     0.943730000000     0          
O12      O      0.443730000000     0.003700000000     0.813230000000     0          
O13      O      0.260660000000     0.496300000000     0.686770000000     0          
O14      O      0.496300000000     0.260660000000     0.556270000000     0          
O15      O      0.056270000000     0.186770000000     0.996300000000     0          
O16      O      0.186770000000     0.056270000000     0.760660000000     0          
O17      O      0.186770000000     0.496300000000     0.556270000000     0          
O18      O      0.056270000000     0.260660000000     0.686770000000     0          
O19      O      0.496300000000     0.186770000000     0.760660000000     0          
O20      O      0.260660000000     0.056270000000     0.996300000000     0          
O21      O      0.056270000000     0.496300000000     0.760660000000     0          
O22      O      0.186770000000     0.260660000000     0.996300000000     0          
O23      O      0.260660000000     0.186770000000     0.556270000000     0          
O24      O      0.496300000000     0.056270000000     0.686770000000     0          
O25      O      0.496300000000     0.260660000000     0.686770000000     0          
O26      O      0.260660000000     0.496300000000     0.556270000000     0          
O27      O      0.186770000000     0.056270000000     0.996300000000     0          
O28      O      0.056270000000     0.186770000000     0.760660000000     0          
O29      O      0.496300000000     0.186770000000     0.556270000000     0          
O30      O      0.260660000000     0.056270000000     0.686770000000     0          
O31      O      0.186770000000     0.496300000000     0.760660000000     0          
O32      O      0.056270000000     0.260660000000     0.996300000000     0          
O33      O      0.496300000000     0.056270000000     0.760660000000     0          
O34      O      0.260660000000     0.186770000000     0.996300000000     0          
O35      O      0.186770000000     0.260660000000     0.556270000000     0          
O36      O      0.056270000000     0.496300000000     0.686770000000     0          
O37      O      0.239340000000     0.003700000000     0.813230000000     0          
O38      O      0.003700000000     0.239340000000     0.943730000000     0          
O39      O      0.443730000000     0.313230000000     0.503700000000     0          
O40      O      0.313230000000     0.443730000000     0.739340000000     0          
O41      O      0.313230000000     0.003700000000     0.943730000000     0          
O42      O      0.443730000000     0.239340000000     0.813230000000     0          
O43      O      0.003700000000     0.313230000000     0.739340000000     0          
O44      O      0.239340000000     0.443730000000     0.503700000000     0          
O45      O      0.443730000000     0.003700000000     0.739340000000     0          
O46      O      0.313230000000     0.239340000000     0.503700000000     0          
O47      O      0.239340000000     0.313230000000     0.943730000000     0          
O48      O      0.003700000000     0.443730000000     0.813230000000     0          
Cu1      Cu     0.034930000000     0.750000000000     0.250000000000     0          
Cu2      Cu     0.250000000000     0.534930000000     0.465070000000     0          
Cu3      Cu     0.250000000000     0.965070000000     0.034930000000     0          
Cu4      Cu     0.465070000000     0.750000000000     0.250000000000     0          
Cu5      Cu     0.034930000000     0.750000000000     0.465070000000     0          
Cu6      Cu     0.250000000000     0.965070000000     0.250000000000     0          
Cu7      Cu     0.250000000000     0.534930000000     0.250000000000     0          
Cu8      Cu     0.465070000000     0.750000000000     0.034930000000     0          
Cu9      Cu     0.034930000000     0.965070000000     0.250000000000     0          
Cu10     Cu     0.250000000000     0.750000000000     0.034930000000     0          
Cu11     Cu     0.250000000000     0.750000000000     0.465070000000     0          
Cu12     Cu     0.465070000000     0.534930000000     0.250000000000     0          
H1       H      0.386300000000     0.733700000000     0.386300000000     0          
H2       H      0.233700000000     0.886300000000     0.493700000000     0          
H3       H      0.386300000000     0.993700000000     0.386300000000     0          
H4       H      0.493700000000     0.886300000000     0.233700000000     0          
H5       H      0.386300000000     0.886300000000     0.493700000000     0          
H6       H      0.233700000000     0.993700000000     0.386300000000     0          
H7       H      0.386300000000     0.886300000000     0.233700000000     0          
H8       H      0.493700000000     0.733700000000     0.386300000000     0          
H9       H      0.386300000000     0.993700000000     0.233700000000     0          
H10      H      0.233700000000     0.886300000000     0.386300000000     0          
H11      H      0.386300000000     0.733700000000     0.493700000000     0          
H12      H      0.493700000000     0.886300000000     0.386300000000     0          
H13      H      0.266300000000     0.613700000000     0.113700000000     0          
H14      H      0.113700000000     0.766300000000     0.006300000000     0          
H15      H      0.006300000000     0.613700000000     0.113700000000     0          
H16      H      0.113700000000     0.506300000000     0.266300000000     0          
H17      H      0.113700000000     0.613700000000     0.006300000000     0          
H18      H      0.006300000000     0.766300000000     0.113700000000     0          
H19      H      0.113700000000     0.613700000000     0.266300000000     0          
H20      H      0.266300000000     0.506300000000     0.113700000000     0          
H21      H      0.006300000000     0.613700000000     0.266300000000     0          
H22      H      0.113700000000     0.766300000000     0.113700000000     0          
H23      H      0.266300000000     0.613700000000     0.006300000000     0          
H24      H      0.113700000000     0.506300000000     0.113700000000     0          
C1       C      0.465450000000     0.737130000000     0.331970000000     0          
C2       C      0.443700000000     0.733560000000     0.379040000000     0          
C3       C      0.237130000000     0.965450000000     0.465450000000     0          
C4       C      0.233560000000     0.943700000000     0.443700000000     0          
C5       C      0.331970000000     0.965450000000     0.465450000000     0          
C6       C      0.379040000000     0.943700000000     0.443700000000     0          
C7       C      0.465450000000     0.831970000000     0.237130000000     0          
C8       C      0.443700000000     0.879040000000     0.233560000000     0          
C9       C      0.465450000000     0.831970000000     0.465450000000     0          
C10      C      0.443700000000     0.879040000000     0.443700000000     0          
C11      C      0.237130000000     0.965450000000     0.331970000000     0          
C12      C      0.233560000000     0.943700000000     0.379040000000     0          
C13      C      0.331970000000     0.965450000000     0.237130000000     0          
C14      C      0.379040000000     0.943700000000     0.233560000000     0          
C15      C      0.465450000000     0.737130000000     0.465450000000     0          
C16      C      0.443700000000     0.733560000000     0.443700000000     0          
C17      C      0.465450000000     0.965450000000     0.237130000000     0          
C18      C      0.443700000000     0.943700000000     0.233560000000     0          
C19      C      0.237130000000     0.831970000000     0.465450000000     0          
C20      C      0.233560000000     0.879040000000     0.443700000000     0          
C21      C      0.331970000000     0.737130000000     0.465450000000     0          
C22      C      0.379040000000     0.733560000000     0.443700000000     0          
C23      C      0.465450000000     0.965450000000     0.331970000000     0          
C24      C      0.443700000000     0.943700000000     0.379040000000     0          
C25      C      0.262870000000     0.534550000000     0.168030000000     0          
C26      C      0.266440000000     0.556300000000     0.120960000000     0          
C27      C      0.034550000000     0.762870000000     0.034550000000     0          
C28      C      0.056300000000     0.766440000000     0.056300000000     0          
C29      C      0.034550000000     0.668030000000     0.034550000000     0          
C30      C      0.056300000000     0.620960000000     0.056300000000     0          
C31      C      0.168030000000     0.534550000000     0.262870000000     0          
C32      C      0.120960000000     0.556300000000     0.266440000000     0          
C33      C      0.168030000000     0.534550000000     0.034550000000     0          
C34      C      0.120960000000     0.556300000000     0.056300000000     0          
C35      C      0.034550000000     0.762870000000     0.168030000000     0          
C36      C      0.056300000000     0.766440000000     0.120960000000     0          
C37      C      0.034550000000     0.668030000000     0.262870000000     0          
C38      C      0.056300000000     0.620960000000     0.266440000000     0          
C39      C      0.262870000000     0.534550000000     0.034550000000     0          
C40      C      0.266440000000     0.556300000000     0.056300000000     0          
C41      C      0.034550000000     0.534550000000     0.262870000000     0          
C42      C      0.056300000000     0.556300000000     0.266440000000     0          
C43      C      0.168030000000     0.762870000000     0.034550000000     0          
C44      C      0.120960000000     0.766440000000     0.056300000000     0          
C45      C      0.262870000000     0.668030000000     0.034550000000     0          
C46      C      0.266440000000     0.620960000000     0.056300000000     0          
C47      C      0.034550000000     0.534550000000     0.168030000000     0          
C48      C      0.056300000000     0.556300000000     0.120960000000     0          
C49      C      0.400750000000     0.733610000000     0.400750000000     0          
C50      C      0.233610000000     0.900750000000     0.464890000000     0          
C51      C      0.400750000000     0.964890000000     0.400750000000     0          
C52      C      0.464890000000     0.900750000000     0.233610000000     0          
C53      C      0.400750000000     0.900750000000     0.464890000000     0          
C54      C      0.233610000000     0.964890000000     0.400750000000     0          
C55      C      0.400750000000     0.900750000000     0.233610000000     0          
C56      C      0.464890000000     0.733610000000     0.400750000000     0          
C57      C      0.400750000000     0.964890000000     0.233610000000     0          
C58      C      0.233610000000     0.900750000000     0.400750000000     0          
C59      C      0.400750000000     0.733610000000     0.464890000000     0          
C60      C      0.464890000000     0.900750000000     0.400750000000     0          
C61      C      0.266390000000     0.599250000000     0.099250000000     0          
C62      C      0.099250000000     0.766390000000     0.035110000000     0          
C63      C      0.035110000000     0.599250000000     0.099250000000     0          
C64      C      0.099250000000     0.535110000000     0.266390000000     0          
C65      C      0.099250000000     0.599250000000     0.035110000000     0          
C66      C      0.035110000000     0.766390000000     0.099250000000     0          
C67      C      0.099250000000     0.599250000000     0.266390000000     0          
C68      C      0.266390000000     0.535110000000     0.099250000000     0          
C69      C      0.035110000000     0.599250000000     0.266390000000     0          
C70      C      0.099250000000     0.766390000000     0.099250000000     0          
C71      C      0.266390000000     0.599250000000     0.035110000000     0          
C72      C      0.099250000000     0.535110000000     0.099250000000     0          
O1       O      0.003700000000     0.739340000000     0.313230000000     0          
O2       O      0.239340000000     0.503700000000     0.443730000000     0          
O3       O      0.313230000000     0.943730000000     0.003700000000     0          
O4       O      0.443730000000     0.813230000000     0.239340000000     0          
O5       O      0.003700000000     0.813230000000     0.443730000000     0          
O6       O      0.239340000000     0.943730000000     0.313230000000     0          
O7       O      0.313230000000     0.503700000000     0.239340000000     0          
O8       O      0.443730000000     0.739340000000     0.003700000000     0          
O9       O      0.003700000000     0.943730000000     0.239340000000     0          
O10      O      0.239340000000     0.813230000000     0.003700000000     0          
O11      O      0.313230000000     0.739340000000     0.443730000000     0          
O12      O      0.443730000000     0.503700000000     0.313230000000     0          
O13      O      0.260660000000     0.996300000000     0.186770000000     0          
O14      O      0.496300000000     0.760660000000     0.056270000000     0          
O15      O      0.056270000000     0.686770000000     0.496300000000     0          
O16      O      0.186770000000     0.556270000000     0.260660000000     0          
O17      O      0.186770000000     0.996300000000     0.056270000000     0          
O18      O      0.056270000000     0.760660000000     0.186770000000     0          
O19      O      0.496300000000     0.686770000000     0.260660000000     0          
O20      O      0.260660000000     0.556270000000     0.496300000000     0          
O21      O      0.056270000000     0.996300000000     0.260660000000     0          
O22      O      0.186770000000     0.760660000000     0.496300000000     0          
O23      O      0.260660000000     0.686770000000     0.056270000000     0          
O24      O      0.496300000000     0.556270000000     0.186770000000     0          
O25      O      0.496300000000     0.760660000000     0.186770000000     0          
O26      O      0.260660000000     0.996300000000     0.056270000000     0          
O27      O      0.186770000000     0.556270000000     0.496300000000     0          
O28      O      0.056270000000     0.686770000000     0.260660000000     0          
O29      O      0.496300000000     0.686770000000     0.056270000000     0          
O30      O      0.260660000000     0.556270000000     0.186770000000     0          
O31      O      0.186770000000     0.996300000000     0.260660000000     0          
O32      O      0.056270000000     0.760660000000     0.496300000000     0          
O33      O      0.496300000000     0.556270000000     0.260660000000     0          
O34      O      0.260660000000     0.686770000000     0.496300000000     0          
O35      O      0.186770000000     0.760660000000     0.056270000000     0          
O36      O      0.056270000000     0.996300000000     0.186770000000     0          
O37      O      0.239340000000     0.503700000000     0.313230000000     0          
O38      O      0.003700000000     0.739340000000     0.443730000000     0          
O39      O      0.443730000000     0.813230000000     0.003700000000     0          
O40      O      0.313230000000     0.943730000000     0.239340000000     0          
O41      O      0.313230000000     0.503700000000     0.443730000000     0          
O42      O      0.443730000000     0.739340000000     0.313230000000     0          
O43      O      0.003700000000     0.813230000000     0.239340000000     0          
O44      O      0.239340000000     0.943730000000     0.003700000000     0          
O45      O      0.443730000000     0.503700000000     0.239340000000     0          
O46      O      0.313230000000     0.739340000000     0.003700000000     0          
O47      O      0.239340000000     0.813230000000     0.443730000000     0          
O48      O      0.003700000000     0.943730000000     0.313230000000     0          
Cu1      Cu     0.034930000000     0.750000000000     0.750000000000     0          
Cu2      Cu     0.250000000000     0.534930000000     0.965070000000     0          
Cu3      Cu     0.250000000000     0.965070000000     0.534930000000     0          
Cu4      Cu     0.465070000000     0.750000000000     0.750000000000     0          
Cu5      Cu     0.034930000000     0.750000000000     0.965070000000     0          
Cu6      Cu     0.250000000000     0.965070000000     0.750000000000     0          
Cu7      Cu     0.250000000000     0.534930000000     0.750000000000     0          
Cu8      Cu     0.465070000000     0.750000000000     0.534930000000     0          
Cu9      Cu     0.034930000000     0.965070000000     0.750000000000     0          
Cu10     Cu     0.250000000000     0.750000000000     0.534930000000     0          
Cu11     Cu     0.250000000000     0.750000000000     0.965070000000     0          
Cu12     Cu     0.465070000000     0.534930000000     0.750000000000     0          
H1       H      0.386300000000     0.733700000000     0.886300000000     0          
H2       H      0.233700000000     0.886300000000     0.993700000000     0          
H3       H      0.386300000000     0.993700000000     0.886300000000     0          
H4       H      0.493700000000     0.886300000000     0.733700000000     0          
H5       H      0.386300000000     0.886300000000     0.993700000000     0          
H6       H      0.233700000000     0.993700000000     0.886300000000     0          
H7       H      0.386300000000     0.886300000000     0.733700000000     0          
H8       H      0.493700000000     0.733700000000     0.886300000000     0          
H9       H      0.386300000000     0.993700000000     0.733700000000     0          
H10      H      0.233700000000     0.886300000000     0.886300000000     0          
H11      H      0.386300000000     0.733700000000     0.993700000000     0          
H12      H      0.493700000000     0.886300000000     0.886300000000     0          
H13      H      0.266300000000     0.613700000000     0.613700000000     0          
H14      H      0.113700000000     0.766300000000     0.506300000000     0          
H15      H      0.006300000000     0.613700000000     0.613700000000     0          
H16      H      0.113700000000     0.506300000000     0.766300000000     0          
H17      H      0.113700000000     0.613700000000     0.506300000000     0          
H18      H      0.006300000000     0.766300000000     0.613700000000     0          
H19      H      0.113700000000     0.613700000000     0.766300000000     0          
H20      H      0.266300000000     0.506300000000     0.613700000000     0          
H21      H      0.006300000000     0.613700000000     0.766300000000     0          
H22      H      0.113700000000     0.766300000000     0.613700000000     0          
H23      H      0.266300000000     0.613700000000     0.506300000000     0          
H24      H      0.113700000000     0.506300000000     0.613700000000     0          
C1       C      0.465450000000     0.737130000000     0.831970000000     0          
C2       C      0.443700000000     0.733560000000     0.879040000000     0          
C3       C      0.237130000000     0.965450000000     0.965450000000     0          
C4       C      0.233560000000     0.943700000000     0.943700000000     0          
C5       C      0.331970000000     0.965450000000     0.965450000000     0          
C6       C      0.379040000000     0.943700000000     0.943700000000     0          
C7       C      0.465450000000     0.831970000000     0.737130000000     0          
C8       C      0.443700000000     0.879040000000     0.733560000000     0          
C9       C      0.465450000000     0.831970000000     0.965450000000     0          
C10      C      0.443700000000     0.879040000000     0.943700000000     0          
C11      C      0.237130000000     0.965450000000     0.831970000000     0          
C12      C      0.233560000000     0.943700000000     0.879040000000     0          
C13      C      0.331970000000     0.965450000000     0.737130000000     0          
C14      C      0.379040000000     0.943700000000     0.733560000000     0          
C15      C      0.465450000000     0.737130000000     0.965450000000     0          
C16      C      0.443700000000     0.733560000000     0.943700000000     0          
C17      C      0.465450000000     0.965450000000     0.737130000000     0          
C18      C      0.443700000000     0.943700000000     0.733560000000     0          
C19      C      0.237130000000     0.831970000000     0.965450000000     0          
C20      C      0.233560000000     0.879040000000     0.943700000000     0          
C21      C      0.331970000000     0.737130000000     0.965450000000     0          
C22      C      0.379040000000     0.733560000000     0.943700000000     0          
C23      C      0.465450000000     0.965450000000     0.831970000000     0          
C24      C      0.443700000000     0.943700000000     0.879040000000     0          
C25      C      0.262870000000     0.534550000000     0.668030000000     0          
C26      C      0.266440000000     0.556300000000     0.620960000000     0          
C27      C      0.034550000000     0.762870000000     0.534550000000     0          
C28      C      0.056300000000     0.766440000000     0.556300000000     0          
C29      C      0.034550000000     0.668030000000     0.534550000000     0          
C30      C      0.056300000000     0.620960000000     0.556300000000     0          
C31      C      0.168030000000     0.534550000000     0.762870000000     0          
C32      C      0.120960000000     0.556300000000     0.766440000000     0          
C33      C      0.168030000000     0.534550000000     0.534550000000     0          
C34      C      0.120960000000     0.556300000000     0.556300000000     0          
C35      C      0.034550000000     0.762870000000     0.668030000000     0          
C36      C      0.056300000000     0.766440000000     0.620960000000     0          
C37      C      0.034550000000     0.668030000000     0.762870000000     0          
C38      C      0.056300000000     0.620960000000     0.766440000000     0          
C39      C      0.262870000000     0.534550000000     0.534550000000     0          
C40      C      0.266440000000     0.556300000000     0.556300000000     0          
C41      C      0.034550000000     0.534550000000     0.762870000000     0          
C42      C      0.056300000000     0.556300000000     0.766440000000     0          
C43      C      0.168030000000     0.762870000000     0.534550000000     0          
C44      C      0.120960000000     0.766440000000     0.556300000000     0          
C45      C      0.262870000000     0.668030000000     0.534550000000     0          
C46      C      0.266440000000     0.620960000000     0.556300000000     0          
C47      C      0.034550000000     0.534550000000     0.668030000000     0          
C48      C      0.056300000000     0.556300000000     0.620960000000     0          
C49      C      0.400750000000     0.733610000000     0.900750000000     0          
C50      C      0.233610000000     0.900750000000     0.964890000000     0          
C51      C      0.400750000000     0.964890000000     0.900750000000     0          
C52      C      0.464890000000     0.900750000000     0.733610000000     0          
C53      C      0.400750000000     0.900750000000     0.964890000000     0          
C54      C      0.233610000000     0.964890000000     0.900750000000     0          
C55      C      0.400750000000     0.900750000000     0.733610000000     0          
C56      C      0.464890000000     0.733610000000     0.900750000000     0          
C57      C      0.400750000000     0.964890000000     0.733610000000     0          
C58      C      0.233610000000     0.900750000000     0.900750000000     0          
C59      C      0.400750000000     0.733610000000     0.964890000000     0          
C60      C      0.464890000000     0.900750000000     0.900750000000     0          
C61      C      0.266390000000     0.599250000000     0.599250000000     0          
C62      C      0.099250000000     0.766390000000     0.535110000000     0          
C63      C      0.035110000000     0.599250000000     0.599250000000     0          
C64      C      0.099250000000     0.535110000000     0.766390000000     0          
C65      C      0.099250000000     0.599250000000     0.535110000000     0          
C66      C      0.035110000000     0.766390000000     0.599250000000     0          
C67      C      0.099250000000     0.599250000000     0.766390000000     0          
C68      C      0.266390000000     0.535110000000     0.599250000000     0          
C69      C      0.035110000000     0.599250000000     0.766390000000     0          
C70      C      0.099250000000     0.766390000000     0.599250000000     0          
C71      C      0.266390000000     0.599250000000     0.535110000000     0          
C72      C      0.099250000000     0.535110000000     0.599250000000     0          
O1       O      0.003700000000     0.739340000000     0.813230000000     0          
O2       O      0.239340000000     0.503700000000     0.943730000000     0          
O3       O      0.313230000000     0.943730000000     0.503700000000     0          
O4       O      0.443730000000     0.813230000000     0.739340000000     0          
O5       O      0.003700000000     0.813230000000     0.943730000000     0          
O6       O      0.239340000000     0.943730000000     0.813230000000     0          
O7       O      0.313230000000     0.503700000000     0.739340000000     0          
O8       O      0.443730000000     0.739340000000     0.503700000000     0          
O9       O      0.003700000000     0.943730000000     0.739340000000     0          
O10      O      0.239340000000     0.813230000000     0.503700000000     0          
O11      O      0.313230000000     0.739340000000     0.943730000000     0          
O12      O      0.443730000000     0.503700000000     0.813230000000     0          
O13      O      0.260660000000     0.996300000000     0.686770000000     0          
O14      O      0.496300000000     0.760660000000     0.556270000000     0          
O15      O      0.056270000000     0.686770000000     0.996300000000     0          
O16      O      0.186770000000     0.556270000000     0.760660000000     0          
O17      O      0.186770000000     0.996300000000     0.556270000000     0          
O18      O      0.056270000000     0.760660000000     0.686770000000     0          
O19      O      0.496300000000     0.686770000000     0.760660000000     0          
O20      O      0.260660000000     0.556270000000     0.996300000000     0          
O21      O      0.056270000000     0.996300000000     0.760660000000     0          
O22      O      0.186770000000     0.760660000000     0.996300000000     0          
O23      O      0.260660000000     0.686770000000     0.556270000000     0          
O24      O      0.496300000000     0.556270000000     0.686770000000     0          
O25      O      0.496300000000     0.760660000000     0.686770000000     0          
O26      O      0.260660000000     0.996300000000     0.556270000000     0          
O27      O      0.186770000000     0.556270000000     0.996300000000     0          
O28      O      0.056270000000     0.686770000000     0.760660000000     0          
O29      O      0.496300000000     0.686770000000     0.556270000000     0          
O30      O      0.260660000000     0.556270000000     0.686770000000     0          
O31      O      0.186770000000     0.996300000000     0.760660000000     0          
O32      O      0.056270000000     0.760660000000     0.996300000000     0          
O33      O      0.496300000000     0.556270000000     0.760660000000     0          
O34      O      0.260660000000     0.686770000000     0.996300000000     0          
O35      O      0.186770000000     0.760660000000     0.556270000000     0          
O36      O      0.056270000000     0.996300000000     0.686770000000     0          
O37      O      0.239340000000     0.503700000000     0.813230000000     0          
O38      O      0.003700000000     0.739340000000     0.943730000000     0          
O39      O      0.443730000000     0.813230000000     0.503700000000     0          
O40      O      0.313230000000     0.943730000000     0.739340000000     0          
O41      O      0.313230000000     0.503700000000     0.943730000000     0          
O42      O      0.443730000000     0.739340000000     0.813230000000     0          
O43      O      0.003700000000     0.813230000000     0.739340000000     0          
O44      O      0.239340000000     0.943730000000     0.503700000000     0          
O45      O      0.443730000000     0.503700000000     0.739340000000     0          
O46      O      0.313230000000     0.739340000000     0.503700000000     0          
O47      O      0.239340000000     0.813230000000     0.943730000000     0          
O48      O      0.003700000000     0.943730000000     0.813230000000     0          
Cu1      Cu     0.534930000000     0.250000000000     0.250000000000     0          
Cu2      Cu     0.750000000000     0.034930000000     0.465070000000     0          
Cu3      Cu     0.750000000000     0.465070000000     0.034930000000     0          
Cu4      Cu     0.965070000000     0.250000000000     0.250000000000     0          
Cu5      Cu     0.534930000000     0.250000000000     0.465070000000     0          
Cu6      Cu     0.750000000000     0.465070000000     0.250000000000     0          
Cu7      Cu     0.750000000000     0.034930000000     0.250000000000     0          
Cu8      Cu     0.965070000000     0.250000000000     0.034930000000     0          
Cu9      Cu     0.534930000000     0.465070000000     0.250000000000     0          
Cu10     Cu     0.750000000000     0.250000000000     0.034930000000     0          
Cu11     Cu     0.750000000000     0.250000000000     0.465070000000     0          
Cu12     Cu     0.965070000000     0.034930000000     0.250000000000     0          
H1       H      0.886300000000     0.233700000000     0.386300000000     0          
H2       H      0.733700000000     0.386300000000     0.493700000000     0          
H3       H      0.886300000000     0.493700000000     0.386300000000     0          
H4       H      0.993700000000     0.386300000000     0.233700000000     0          
H5       H      0.886300000000     0.386300000000     0.493700000000     0          
H6       H      0.733700000000     0.493700000000     0.386300000000     0          
H7       H      0.886300000000     0.386300000000     0.233700000000     0          
H8       H      0.993700000000     0.233700000000     0.386300000000     0          
H9       H      0.886300000000     0.493700000000     0.233700000000     0          
H10      H      0.733700000000     0.386300000000     0.386300000000     0          
H11      H      0.886300000000     0.233700000000     0.493700000000     0          
H12      H      0.993700000000     0.386300000000     0.386300000000     0          
H13      H      0.766300000000     0.113700000000     0.113700000000     0          
H14      H      0.613700000000     0.266300000000     0.006300000000     0          
H15      H      0.506300000000     0.113700000000     0.113700000000     0          
H16      H      0.613700000000     0.006300000000     0.266300000000     0          
H17      H      0.613700000000     0.113700000000     0.006300000000     0          
H18      H      0.506300000000     0.266300000000     0.113700000000     0          
H19      H      0.613700000000     0.113700000000     0.266300000000     0          
H20      H      0.766300000000     0.006300000000     0.113700000000     0          
H21      H      0.506300000000     0.113700000000     0.266300000000     0          
H22      H      0.613700000000     0.266300000000     0.113700000000     0          
H23      H      0.766300000000     0.113700000000     0.006300000000     0          
H24      H      0.613700000000     0.006300000000     0.113700000000     0          
C1       C      0.965450000000     0.237130000000     0.331970000000     0          
C2       C      0.943700000000     0.233560000000     0.379040000000     0          
C3       C      0.737130000000     0.465450000000     0.465450000000     0          
C4       C      0.733560000000     0.443700000000     0.443700000000     0          
C5       C      0.831970000000     0.465450000000     0.465450000000     0          
C6       C      0.879040000000     0.443700000000     0.443700000000     0          
C7       C      0.965450000000     0.331970000000     0.237130000000     0          
C8       C      0.943700000000     0.379040000000     0.233560000000     0          
C9       C      0.965450000000     0.331970000000     0.465450000000     0          
C10      C      0.943700000000     0.379040000000     0.443700000000     0          
C11      C      0.737130000000     0.465450000000     0.331970000000     0          
C12      C      0.733560000000     0.443700000000     0.379040000000     0          
C13      C      0.831970000000     0.465450000000     0.237130000000     0          
C14      C      0.879040000000     0.443700000000     0.233560000000     0          
C15      C      0.965450000000     0.237130000000     0.465450000000     0          
C16      C      0.943700000000     0.233560000000     0.443700000000     0          
C17      C      0.965450000000     0.465450000000     0.237130000000     0          
C18      C      0.943700000000     0.443700000000     0.233560000000     0          
C19      C      0.737130000000     0.331970000000     0.465450000000     0          
C20      C      0.733560000000     0.379040000000     0.443700000000     0          
C21      C      0.831970000000     0.237130000000     0.465450000000     0          
C22      C      0.879040000000     0.233560000000     0.443700000000     0          
C23      C      0.965450000000     0.465450000000     0.331970000000     0          
C24      C      0.943700000000     0.443700000000     0.379040000000     0          
C25      C      0.762870000000     0.034550000000     0.168030000000     0          
C26      C      0.766440000000     0.056300000000     0.120960000000     0          
C27      C      0.534550000000     0.262870000000     0.034550000000     0          
C28      C      0.556300000000     0.266440000000     0.056300000000     0          
C29      C      0.534550000000     0.168030000000     0.034550000000     0          
C30      C      0.556300000000     0.120960000000     0.056300000000     0          
C31      C      0.668030000000     0.034550000000     0.262870000000     0          
C32      C      0.620960000000     0.056300000000     0.266440000000     0          
C33      C      0.668030000000     0.034550000000     0.034550000000     0          
C34      C      0.620960000000     0.056300000000     0.056300000000     0          
C35      C      0.534550000000     0.262870000000     0.168030000000     0          
C36      C      0.556300000000     0.266440000000     0.120960000000     0          
C37      C      0.534550000000     0.168030000000     0.262870000000     0          
C38      C      0.556300000000     0.120960000000     0.266440000000     0          
C39      C      0.762870000000     0.034550000000     0.034550000000     0          
C40      C      0.766440000000     0.056300000000     0.056300000000     0          
C41      C      0.534550000000     0.034550000000     0.262870000000     0          
C42      C      0.556300000000     0.056300000000     0.266440000000     0          
C43      C      0.668030000000     0.262870000000     0.034550000000     0          
C44      C      0.620960000000     0.266440000000     0.056300000000     0          
C45      C      0.762870000000     0.168030000000     0.034550000000     0          
C46      C      0.766440000000     0.120960000000     0.056300000000     0          
C47      C      0.534550000000     0.034550000000     0.168030000000     0          
C48      C      0.556300000000     0.056300000000     0.120960000000     0          
C49      C      0.900750000000     0.233610000000     0.400750000000     0          
C50      C      0.733610000000     0.400750000000     0.464890000000     0          
C51      C      0.900750000000     0.464890000000     0.400750000000     0          
C52      C      0.964890000000     0.400750000000     0.233610000000     0          
C53      C      0.900750000000     0.400750000000     0.464890000000     0          
C54      C      0.733610000000     0.464890000000     0.400750000000     0          
C55      C      0.900750000000     0.400750000000     0.233610000000     0          
C56      C      0.964890000000     0.233610000000     0.400750000000     0          
C57      C      0.900750000000     0.464890000000     0.233610000000     0          
C58      C      0.733610000000     0.400750000000     0.400750000000     0          
C59      C      0.900750000000     0.233610000000     0.464890000000     0          
C60      C      0.964890000000     0.400750000000     0.400750000000     0          
C61      C      0.766390000000     0.099250000000     0.099250000000     0          
C62      C      0.599250000000     0.266390000000     0.035110000000     0          
C63      C      0.535110000000     0.099250000000     0.099250000000     0          
C64      C      0.599250000000     0.035110000000     0.266390000000     0          
C65      C      0.599250000000     0.099250000000     0.035110000000     0          
C66      C      0.535110000000     0.266390000000     0.099250000000     0          
C67      C      0.599250000000     0.099250000000     0.266390000000     0          
C68      C      0.766390000000     0.035110000000     0.099250000000     0          
C69      C      0.535110000000     0.099250000000     0.266390000000     0          
C70      C      0.599250000000     0.266390000000     0.099250000000     0          
C71      C      0.766390000000     0.099250000000     0.035110000000     0          
C72      C      0.599250000000     0.035110000000     0.099250000000     0          
O1       O      0.503700000000     0.239340000000     0.313230000000     0          
O2       O      0.739340000000     0.003700000000     0.443730000000     0          
O3       O      0.813230000000     0.443730000000     0.003700000000     0          
O4       O      0.943730000000     0.313230000000     0.239340000000     0          
O5       O      0.503700000000     0.313230000000     0.443730000000     0          
O6       O      0.739340000000     0.443730000000     0.313230000000     0          
O7       O      0.813230000000     0.003700000000     0.239340000000     0          
O8       O      0.943730000000     0.239340000000     0.003700000000     0          
O9       O      0.503700000000     0.443730000000     0.239340000000     0          
O10      O      0.739340000000     0.313230000000     0.003700000000     0          
O11      O      0.813230000000     0.239340000000     0.443730000000     0          
O12      O      0.943730000000     0.003700000000     0.313230000000     0          
O13      O      0.760660000000     0.496300000000     0.186770000000     0          
O14      O      0.996300000000     0.260660000000     0.056270000000     0          
O15      O      0.556270000000     0.186770000000     0.496300000000     0          
O16      O      0.686770000000     0.056270000000     0.260660000000     0          
O17      O      0.686770000000     0.496300000000     0.056270000000     0          
O18      O      0.556270000000     0.260660000000     0.186770000000     0          
O19      O      0.996300000000     0.186770000000     0.260660000000     0          
O20      O      0.760660000000     0.056270000000     0.496300000000     0          
O21      O      0.556270000000     0.496300000000     0.260660000000     0          
O22      O      0.686770000000     0.260660000000     0.496300000000     0          
O23      O      0.760660000000     0.186770000000     0.056270000000     0          
O24      O      0.996300000000     0.056270000000     0.186770000000     0          
O25      O      0.996300000000     0.260660000000     0.186770000000     0          
O26      O      0.760660000000     0.496300000000     0.056270000000     0          
O27      O      0.686770000000     0.056270000000     0.496300000000     0          
O28      O      0.556270000000     0.186770000000     0.260660000000     0          
O29      O      0.996300000000     0.186770000000     0.056270000000     0          
O30      O      0.760660000000     0.056270000000     0.186770000000     0          
O31      O      0.686770000000     0.496300000000     0.260660000000     0          
O32      O      0.556270000000     0.260660000000     0.496300000000     0          
O33      O      0.996300000000     0.056270000000     0.260660000000     0          
O34      O      0.760660000000     0.186770000000     0.496300000000     0          
O35      O      0.686770000000     0.260660000000     0.056270000000     0          
O36      O      0.556270000000     0.496300000000     0.186770000000     0          
O37      O      0.739340000000     0.003700000000     0.313230000000     0          
O38      O      0.503700000000     0.239340000000     0.443730000000     0          
O39      O      0.943730000000     0.313230000000     0.003700000000     0          
O40      O      0.813230000000     0.443730000000     0.239340000000     0          
O41      O      0.813230000000     0.003700000000     0.443730000000     0          
O42      O      0.943730000000     0.239340000000     0.313230000000     0          
O43      O      0.503700000000     0.313230000000     0.239340000000     0          
O44      O      0.739340000000     0.443730000000     0.003700000000     0          
O45      O      0.943730000000     0.003700000000     0.239340000000     0          
O46      O      0.813230000000     0.239340000000     0.003700000000     0          
O47      O      0.739340000000     0.313230000000     0.443730000000     0          
O48      O      0.503700000000     0.443730000000     0.313230000000     0          
Cu1      Cu     0.534930000000     0.250000000000     0.750000000000     0          
Cu2      Cu     0.750000000000     0.034930000000     0.965070000000     0          
Cu3      Cu     0.750000000000     0.465070000000     0.534930000000     0          
Cu4      Cu     0.965070000000     0.250000000000     0.750000000000     0          
Cu5      Cu     0.534930000000     0.250000000000     0.965070000000     0          
Cu6      Cu     0.750000000000     0.465070000000     0.750000000000     0          
Cu7      Cu     0.750000000000     0.034930000000     0.750000000000     0          
Cu8      Cu     0.965070000000     0.250000000000     0.534930000000     0          
Cu9      Cu     0.534930000000     0.465070000000     0.750000000000     0          
Cu10     Cu     0.750000000000     0.250000000000     0.534930000000     0          
Cu11     Cu     0.750000000000     0.250000000000     0.965070000000     0          
Cu12     Cu     0.965070000000     0.034930000000     0.750000000000     0          
H1       H      0.886300000000     0.233700000000     0.886300000000     0          
H2       H      0.733700000000     0.386300000000     0.993700000000     0          
H3       H      0.886300000000     0.493700000000     0.886300000000     0          
H4       H      0.993700000000     0.386300000000     0.733700000000     0          
H5       H      0.886300000000     0.386300000000     0.993700000000     0          
H6       H      0.733700000000     0.493700000000     0.886300000000     0          
H7       H      0.886300000000     0.386300000000     0.733700000000     0          
H8       H      0.993700000000     0.233700000000     0.886300000000     0          
H9       H      0.886300000000     0.493700000000     0.733700000000     0          
H10      H      0.733700000000     0.386300000000     0.886300000000     0          
H11      H      0.886300000000     0.233700000000     0.993700000000     0          
H12      H      0.993700000000     0.386300000000     0.886300000000     0          
H13      H      0.766300000000     0.113700000000     0.613700000000     0          
H14      H      0.613700000000     0.266300000000     0.506300000000     0          
H15      H      0.506300000000     0.113700000000     0.613700000000     0          
H16      H      0.613700000000     0.006300000000     0.766300000000     0          
H17      H      0.613700000000     0.113700000000     0.506300000000     0          
H18      H      0.506300000000     0.266300000000     0.613700000000     0          
H19      H      0.613700000000     0.113700000000     0.766300000000     0          
H20      H      0.766300000000     0.006300000000     0.613700000000     0          
H21      H      0.506300000000     0.113700000000     0.766300000000     0          
H22      H      0.613700000000     0.266300000000     0.613700000000     0          
H23      H      0.766300000000     0.113700000000     0.506300000000     0          
H24      H      0.613700000000     0.006300000000     0.613700000000     0          
C1       C      0.965450000000     0.237130000000     0.831970000000     0          
C2       C      0.943700000000     0.233560000000     0.879040000000     0          
C3       C      0.737130000000     0.465450000000     0.965450000000     0          
C4       C      0.733560000000     0.443700000000     0.943700000000     0          
C5       C      0.831970000000     0.465450000000     0.965450000000     0          
C6       C      0.879040000000     0.443700000000     0.943700000000     0          
C7       C      0.965450000000     0.331970000000     0.737130000000     0          
C8       C      0.943700000000     0.379040000000     0.733560000000     0          
C9       C      0.965450000000     0.331970000000     0.965450000000     0          
C10      C      0.943700000000     0.379040000000     0.943700000000     0          
C11      C      0.737130000000     0.465450000000     0.831970000000     0          
C12      C      0.733560000000     0.443700000000     0.879040000000     0          
C13      C      0.831970000000     0.465450000000     0.737130000000     0          
C14      C      0.879040000000     0.443700000000     0.733560000000     0          
C15      C      0.965450000000     0.237130000000     0.965450000000     0          
C16      C      0.943700000000     0.233560000000     0.943700000000     0          
C17      C      0.965450000000     0.465450000000     0.737130000000     0          
C18      C      0.943700000000     0.443700000000     0.733560000000     0          
C19      C      0.737130000000     0.331970000000     0.965450000000     0          
C20      C      0.733560000000     0.379040000000     0.943700000000     0          
C21      C      0.831970000000     0.237130000000     0.965450000000     0          
C22      C      0.879040000000     0.233560000000     0.943700000000     0          
C23      C      0.965450000000     0.465450000000     0.831970000000     0          
C24      C      0.943700000000     0.443700000000     0.879040000000     0          
C25      C      0.762870000000     0.034550000000     0.668030000000     0          
C26      C      0.766440000000     0.056300000000     0.620960000000     0          
C27      C      0.534550000000     0.262870000000     0.534550000000     0          
C28      C      0.556300000000     0.266440000000     0.556300000000     0          
C29      C      0.534550000000     0.168030000000     0.534550000000     0          
C30      C      0.556300000000     0.120960000000     0.556300000000     0          
C31      C      0.668030000000     0.034550000000     0.762870000000     0          
C32      C      0.620960000000     0.056300000000     0.766440000000     0          
C33      C      0.668030000000     0.034550000000     0.534550000000     0          
C34      C      0.620960000000     0.056300000000     0.556300000000     0          
C35      C      0.534550000000     0.262870000000     0.668030000000     0          
C36      C      0.556300000000     0.266440000000     0.620960000000     0          
C37      C      0.534550000000     0.168030000000     0.762870000000     0          
C38      C      0.556300000000     0.120960000000     0.766440000000     0          
C39      C      0.762870000000     0.034550000000     0.534550000000     0          
C40      C      0.766440000000     0.056300000000     0.556300000000     0          
C41      C      0.534550000000     0.034550000000     0.762870000000     0          
C42      C      0.556300000000     0.056300000000     0.766440000000     0          
C43      C      0.668030000000     0.262870000000     0.534550000000     0          
C44      C      0.620960000000     0.266440000000     0.556300000000     0          
C45      C      0.762870000000     0.168030000000     0.534550000000     0          
C46      C      0.766440000000     0.120960000000     0.556300000000     0          
C47      C      0.534550000000     0.034550000000     0.668030000000     0          
C48      C      0.556300000000     0.056300000000     0.620960000000     0          
C49      C      0.900750000000     0.233610000000     0.900750000000     0          
C50      C      0.733610000000     0.400750000000     0.964890000000     0          
C51      C      0.900750000000     0.464890000000     0.900750000000     0          
C52      C      0.964890000000     0.400750000000     0.733610000000     0          
C53      C      0.900750000000     0.400750000000     0.964890000000     0          
C54      C      0.733610000000     0.464890000000     0.900750000000     0          
C55      C      0.900750000000     0.400750000000     0.733610000000     0          
C56      C      0.964890000000     0.233610000000     0.900750000000     0          
C57      C      0.900750000000     0.464890000000     0.733610000000     0          
C58      C      0.733610000000     0.400750000000     0.900750000000     0          
C59      C      0.900750000000     0.233610000000     0.964890000000     0          
C60      C      0.964890000000     0.400750000000     0.900750000000     0          
C61      C      0.766390000000     0.099250000000     0.599250000000     0          
C62      C      0.599250000000     0.266390000000     0.535110000000     0          
C63      C      0.535110000000     0.099250000000     0.599250000000     0          
C64      C      0.599250000000     0.035110000000     0.766390000000     0          
C65      C      0.599250000000     0.099250000000     0.535110000000     0          
C66      C      0.535110000000     0.266390000000     0.599250000000     0          
C67      C      0.599250000000     0.099250000000     0.766390000000     0          
C68      C      0.766390000000     0.035110000000     0.599250000000     0          
C69      C      0.535110000000     0.099250000000     0.766390000000     0          
C70      C      0.599250000000     0.266390000000     0.599250000000     0          
C71      C      0.766390000000     0.099250000000     0.535110000000     0          
C72      C      0.599250000000     0.035110000000     0.599250000000     0          
O1       O      0.503700000000     0.239340000000     0.813230000000     0          
O2       O      0.739340000000     0.003700000000     0.943730000000     0          
O3       O      0.813230000000     0.443730000000     0.503700000000     0          
O4       O      0.943730000000     0.313230000000     0.739340000000     0          
O5       O      0.503700000000     0.313230000000     0.943730000000     0          
O6       O      0.739340000000     0.443730000000     0.813230000000     0          
O7       O      0.813230000000     0.003700000000     0.739340000000     0          
O8       O      0.943730000000     0.239340000000     0.503700000000     0          
O9       O      0.503700000000     0.443730000000     0.739340000000     0          
O10      O      0.739340000000     0.313230000000     0.503700000000     0          
O11      O      0.813230000000     0.239340000000     0.943730000000     0          
O12      O      0.943730000000     0.003700000000     0.813230000000     0          
O13      O      0.760660000000     0.496300000000     0.686770000000     0          
O14      O      0.996300000000     0.260660000000     0.556270000000     0          
O15      O      0.556270000000     0.186770000000     0.996300000000     0          
O16      O      0.686770000000     0.056270000000     0.760660000000     0          
O17      O      0.686770000000     0.496300000000     0.556270000000     0          
O18      O      0.556270000000     0.260660000000     0.686770000000     0          
O19      O      0.996300000000     0.186770000000     0.760660000000     0          
O20      O      0.760660000000     0.056270000000     0.996300000000     0          
O21      O      0.556270000000     0.496300000000     0.760660000000     0          
O22      O      0.686770000000     0.260660000000     0.996300000000     0          
O23      O      0.760660000000     0.186770000000     0.556270000000     0          
O24      O      0.996300000000     0.056270000000     0.686770000000     0          
O25      O      0.996300000000     0.260660000000     0.686770000000     0          
O26      O      0.760660000000     0.496300000000     0.556270000000     0          
O27      O      0.686770000000     0.056270000000     0.996300000000     0          
O28      O      0.556270000000     0.186770000000     0.760660000000     0          
O29      O      0.996300000000     0.186770000000     0.556270000000     0          
O30      O      0.760660000000     0.056270000000     0.686770000000     0          
O31      O      0.686770000000     0.496300000000     0.760660000000     0          
O32      O      0.556270000000     0.260660000000     0.996300000000     0          
O33      O      0.996300000000     0.056270000000     0.760660000000     0          
O34      O      0.760660000000     0.186770000000     0.996300000000     0          
O35      O      0.686770000000     0.260660000000     0.556270000000     0          
O36      O      0.556270000000     0.496300000000     0.686770000000     0          
O37      O      0.739340000000     0.003700000000     0.813230000000     0          
O38      O      0.503700000000     0.239340000000     0.943730000000     0          
O39      O      0.943730000000     0.313230000000     0.503700000000     0          
O40      O      0.813230000000     0.443730000000     0.739340000000     0          
O41      O      0.813230000000     0.003700000000     0.943730000000     0          
O42      O      0.943730000000     0.239340000000     0.813230000000     0          
O43      O      0.503700000000     0.313230000000     0.739340000000     0          
O44      O      0.739340000000     0.443730000000     0.503700000000     0          
O45      O      0.943730000000     0.003700000000     0.739340000000     0          
O46      O      0.813230000000     0.239340000000     0.503700000000     0          
O47      O      0.739340000000     0.313230000000     0.943730000000     0          
O48      O      0.503700000000     0.443730000000     0.813230000000     0          
Cu1      Cu     0.534930000000     0.750000000000     0.250000000000     0          
Cu2      Cu     0.750000000000     0.534930000000     0.465070000000     0          
Cu3      Cu     0.750000000000     0.965070000000     0.034930000000     0          
Cu4      Cu     0.965070000000     0.750000000000     0.250000000000     0          
Cu5      Cu     0.534930000000     0.750000000000     0.465070000000     0          
Cu6      Cu     0.750000000000     0.965070000000     0.250000000000     0          
Cu7      Cu     0.750000000000     0.534930000000     0.250000000000     0          
Cu8      Cu     0.965070000000     0.750000000000     0.034930000000     0          
Cu9      Cu     0.534930000000     0.965070000000     0.250000000000     0          
Cu10     Cu     0.750000000000     0.750000000000     0.034930000000     0          
Cu11     Cu     0.750000000000     0.750000000000     0.465070000000     0          
Cu12     Cu     0.965070000000     0.534930000000     0.250000000000     0          
H1       H      0.886300000000     0.733700000000     0.386300000000     0          
H2       H      0.733700000000     0.886300000000     0.493700000000     0          
H3       H      0.886300000000     0.993700000000     0.386300000000     0          
H4       H      0.993700000000     0.886300000000     0.233700000000     0          
H5       H      0.886300000000     0.886300000000     0.493700000000     0          
H6       H      0.733700000000     0.993700000000     0.386300000000     0          
H7       H      0.886300000000     0.886300000000     0.233700000000     0          
H8       H      0.993700000000     0.733700000000     0.386300000000     0          
H9       H      0.886300000000     0.993700000000     0.233700000000     0          
H10      H      0.733700000000     0.886300000000     0.386300000000     0          
H11      H      0.886300000000     0.733700000000     0.493700000000     0          
H12      H      0.993700000000     0.886300000000     0.386300000000     0          
H13      H      0.766300000000     0.613700000000     0.113700000000     0          
H14      H      0.613700000000     0.766300000000     0.006300000000     0          
H15      H      0.506300000000     0.613700000000     0.113700000000     0          
H16      H      0.613700000000     0.506300000000     0.266300000000     0          
H17      H      0.613700000000     0.613700000000     0.006300000000     0          
H18      H      0.506300000000     0.766300000000     0.113700000000     0          
H19      H      0.613700000000     0.613700000000     0.266300000000     0          
H20      H      0.766300000000     0.506300000000     0.113700000000     0          
H21      H      0.506300000000     0.613700000000     0.266300000000     0          
H22      H      0.613700000000     0.766300000000     0.113700000000     0          
H23      H      0.766300000000     0.613700000000     0.006300000000     0          
H24      H      0.613700000000     0.506300000000     0.113700000000     0          
C1       C      0.965450000000     0.737130000000     0.331970000000     0          
C2       C      0.943700000000     0.733560000000     0.379040000000     0          
C3       C      0.737130000000     0.965450000000     0.465450000000     0          
C4       C      0.733560000000     0.943700000000     0.443700000000     0          
C5       C      0.831970000000     0.965450000000     0.465450000000     0          
C6       C      0.879040000000     0.943700000000     0.443700000000     0          
C7       C      0.965450000000     0.831970000000     0.237130000000     0          
C8       C      0.943700000000     0.879040000000     0.233560000000     0          
C9       C      0.965450000000     0.831970000000     0.465450000000     0          
C10      C      0.943700000000     0.879040000000     0.443700000000     0          
C11      C      0.737130000000     0.965450000000     0.331970000000     0          
C12      C      0.733560000000     0.943700000000     0.379040000000     0          
C13      C      0.831970000000     0.965450000000     0.237130000000     0          
C14      C      0.879040000000     0.943700000000     0.233560000000     0          
C15      C      0.965450000000     0.737130000000     0.465450000000     0          
C16      C      0.943700000000     0.733560000000     0.443700000000     0          
C17      C      0.965450000000     0.965450000000     0.237130000000     0          
C18      C      0.943700000000     0.943700000000     0.233560000000     0          
C19      C      0.737130000000     0.831970000000     0.465450000000     0          
C20      C      0.733560000000     0.879040000000     0.443700000000     0          
C21      C      0.831970000000     0.737130000000     0.465450000000     0          
C22      C      0.879040000000     0.733560000000     0.443700000000     0          
C23      C      0.965450000000     0.965450000000     0.331970000000     0          
C24      C      0.943700000000     0.943700000000     0.379040000000     0          
C25      C      0.762870000000     0.534550000000     0.168030000000     0          
C26      C      0.766440000000     0.556300000000     0.120960000000     0          
C27      C      0.534550000000     0.762870000000     0.034550000000     0          
C28      C      0.556300000000     0.766440000000     0.056300000000     0          
C29      C      0.534550000000     0.668030000000     0.034550000000     0          
C30      C      0.556300000000     0.620960000000     0.056300000000     0          
C31      C      0.668030000000     0.534550000000     0.262870000000     0          
C32      C      0.620960000000     0.556300000000     0.266440000000     0          
C33      C      0.668030000000     0.534550000000     0.034550000000     0          
C34      C      0.620960000000     0.556300000000     0.056300000000     0          
C35      C      0.534550000000     0.762870000000     0.168030000000     0          
C36      C      0.556300000000     0.766440000000     0.120960000000     0          
C37      C      0.534550000000     0.668030000000     0.262870000000     0          
C38      C      0.556300000000     0.620960000000     0.266440000000     0          
C39      C      0.762870000000     0.534550000000     0.034550000000     0          
C40      C      0.766440000000     0.556300000000     0.056300000000     0          
C41      C      0.534550000000     0.534550000000     0.262870000000     0          
C42      C      0.556300000000     0.556300000000     0.266440000000     0          
C43      C      0.668030000000     0.762870000000     0.034550000000     0          
C44      C      0.620960000000     0.766440000000     0.056300000000     0          
C45      C      0.762870000000     0.668030000000     0.034550000000     0          
C46      C      0.766440000000     0.620960000000     0.056300000000     0          
C47      C      0.534550000000     0.534550000000     0.168030000000     0          
C48      C      0.556300000000     0.556300000000     0.120960000000     0          
C49      C      0.900750000000     0.733610000000     0.400750000000     0          
C50      C      0.733610000000     0.900750000000     0.464890000000     0          
C51      C      0.900750000000     0.964890000000     0.400750000000     0          
C52      C      0.964890000000     0.900750000000     0.233610000000     0          
C53      C      0.900750000000     0.900750000000     0.464890000000     0          
C54      C      0.733610000000     0.964890000000     0.400750000000     0          
C55      C      0.900750000000     0.900750000000     0.233610000000     0          
C56      C      0.964890000000     0.733610000000     0.400750000000     0          
C57      C      0.900750000000     0.964890000000     0.233610000000     0          
C58      C      0.733610000000     0.900750000000     0.400750000000     0          
C59      C      0.900750000000     0.733610000000     0.464890000000     0          
C60      C      0.964890000000     0.900750000000     0.400750000000     0          
C61      C      0.766390000000     0.599250000000     0.099250000000     0          
C62      C      0.599250000000     0.766390000000     0.035110000000     0          
C63      C      0.535110000000     0.599250000000     0.099250000000     0          
C64      C      0.599250000000     0.535110000000     0.266390000000     0          
C65      C      0.599250000000     0.599250000000     0.035110000000     0          
C66      C      0.535110000000     0.766390000000     0.099250000000     0          
C67      C      0.599250000000     0.599250000000     0.266390000000     0          
C68      C      0.766390000000     0.535110000000     0.099250000000     0          
C69      C      0.535110000000     0.599250000000     0.266390000000     0          
C70      C      0.599250000000     0.766390000000     0.099250000000     0          
C71      C      0.766390000000     0.599250000000     0.035110000000     0          
C72      C      0.599250000000     0.535110000000     0.099250000000     0          
O1       O      0.503700000000     0.739340000000     0.313230000000     0          
O2       O      0.739340000000     0.503700000000     0.443730000000     0          
O3       O      0.813230000000     0.943730000000     0.003700000000     0          
O4       O      0.943730000000     0.813230000000     0.239340000000     0          
O5       O      0.503700000000     0.813230000000     0.443730000000     0          
O6       O      0.739340000000     0.943730000000     0.313230000000     0          
O7       O      0.813230000000     0.503700000000     0.239340000000     0          
O8       O      0.943730000000     0.739340000000     0.003700000000     0          
O9       O      0.503700000000     0.943730000000     0.239340000000     0          
O10      O      0.739340000000     0.813230000000     0.003700000000     0          
O11      O      0.813230000000     0.739340000000     0.443730000000     0          
O12      O      0.943730000000     0.503700000000     0.313230000000     0          
O13      O      0.760660000000     0.996300000000     0.186770000000     0          
O14      O      0.996300000000     0.760660000000     0.056270000000     0          
O15      O      0.556270000000     0.686770000000     0.496300000000     0          
O16      O      0.686770000000     0.556270000000     0.260660000000     0          
O17      O      0.686770000000     0.996300000000     0.056270000000     0          
O18      O      0.556270000000     0.760660000000     0.186770000000     0          
O19      O      0.996300000000     0.686770000000     0.260660000000     0          
O20      O      0.760660000000     0.556270000000     0.496300000000     0          
O21      O      0.556270000000     0.996300000000     0.260660000000     0          
O22      O      0.686770000000     0.760660000000     0.496300000000     0          
O23      O      0.760660000000     0.686770000000     0.056270000000     0          
O24      O      0.996300000000     0.556270000000     0.186770000000     0          
O25      O      0.996300000000     0.760660000000     0.186770000000     0          
O26      O      0.760660000000     0.996300000000     0.056270000000     0          
O27      O      0.686770000000     0.556270000000     0.496300000000     0          
O28      O      0.556270000000     0.686770000000     0.260660000000     0          
O29      O      0.996300000000     0.686770000000     0.056270000000     0          
O30      O      0.760660000000     0.556270000000     0.186770000000     0          
O31      O      0.686770000000     0.996300000000     0.260660000000     0          
O32      O      0.556270000000     0.760660000000     0.496300000000     0          
O33      O      0.996300000000     0.556270000000     0.260660000000     0          
O34      O      0.760660000000     0.686770000000     0.496300000000     0          
O35      O      0.686770000000     0.760660000000     0.056270000000     0          
O36      O      0.556270000000     0.996300000000     0.186770000000     0          
O37      O      0.739340000000     0.503700000000     0.313230000000     0          
O38      O      0.503700000000     0.739340000000     0.443730000000     0          
O39      O      0.943730000000     0.813230000000     0.003700000000     0          
O40      O      0.813230000000     0.943730000000     0.239340000000     0          
O41      O      0.813230000000     0.503700000000     0.443730000000     0          
O42      O      0.943730000000     0.739340000000     0.313230000000     0          
O43      O      0.503700000000     0.813230000000     0.239340000000     0          
O44      O      0.739340000000     0.943730000000     0.003700000000     0          
O45      O      0.943730000000     0.503700000000     0.239340000000     0          
O46      O      0.813230000000     0.739340000000     0.003700000000     0          
O47      O      0.739340000000     0.813230000000     0.443730000000     0          
O48      O      0.503700000000     0.943730000000     0.313230000000     0          
Cu1      Cu     0.534930000000     0.750000000000     0.750000000000     0          
Cu2      Cu     0.750000000000     0.534930000000     0.965070000000     0          
Cu3      Cu     0.750000000000     0.965070000000     0.534930000000     0          
Cu4      Cu     0.965070000000     0.750000000000     0.750000000000     0          
Cu5      Cu     0.534930000000     0.750000000000     0.965070000000     0          
Cu6      Cu     0.750000000000     0.965070000000     0.750000000000     0          
Cu7      Cu     0.750000000000     0.534930000000     0.750000000000     0          
Cu8      Cu     0.965070000000     0.750000000000     0.534930000000     0          
Cu9      Cu     0.534930000000     0.965070000000     0.750000000000     0          
Cu10     Cu     0.750000000000     0.750000000000     0.534930000000     0          
Cu11     Cu     0.750000000000     0.750000000000     0.965070000000     0          
Cu12     Cu     0.965070000000     0.534930000000     0.750000000000     0          
H1       H      0.886300000000     0.733700000000     0.886300000000     0          
H2       H      0.733700000000     0.886300000000     0.993700000000     0          
H3       H      0.886300000000     0.993700000000     0.886300000000     0          
H4       H      0.993700000000     0.886300000000     0.733700000000     0          
H5       H      0.886300000000     0.886300000000     0.993700000000     0          
H6       H      0.733700000000     0.993700000000     0.886300000000     0          
H7       H      0.886300000000     0.886300000000     0.733700000000     0          
H8       H      0.993700000000     0.733700000000     0.886300000000     0          
H9       H      0.886300000000     0.993700000000     0.733700000000     0          
H10      H      0.733700000000     0.886300000000     0.886300000000     0          
H11      H      0.886300000000     0.733700000000     0.993700000000     0          
H12      H      0.993700000000     0.886300000000     0.886300000000     0          
H13      H      0.766300000000     0.613700000000     0.613700000000     0          
H14      H      0.613700000000     0.766300000000     0.506300000000     0          
H15      H      0.506300000000     0.613700000000     0.613700000000     0          
H16      H      0.613700000000     0.506300000000     0.766300000000     0          
H17      H      0.613700000000     0.613700000000     0.506300000000     0          
H18      H      0.506300000000     0.766300000000     0.613700000000     0          
H19      H      0.613700000000     0.613700000000     0.766300000000     0          
H20      H      0.766300000000     0.506300000000     0.613700000000     0          
H21      H      0.506300000000     0.613700000000     0.766300000000     0          
H22      H      0.613700000000     0.766300000000     0.613700000000     0          
H23      H      0.766300000000     0.613700000000     0.506300000000     0          
H24      H      0.613700000000     0.506300000000     0.613700000000     0          
C1       C      0.965450000000     0.737130000000     0.831970000000     0          
C2       C      0.943700000000     0.733560000000     0.879040000000     0          
C3       C      0.737130000000     0.965450000000     0.965450000000     0          
C4       C      0.733560000000     0.943700000000     0.943700000000     0          
C5       C      0.831970000000     0.965450000000     0.965450000000     0          
C6       C      0.879040000000     0.943700000000     0.943700000000     0          
C7       C      0.965450000000     0.831970000000     0.737130000000     0          
C8       C      0.943700000000     0.879040000000     0.733560000000     0          
C9       C      0.965450000000     0.831970000000     0.965450000000     0          
C10      C      0.943700000000     0.879040000000     0.943700000000     0          
C11      C      0.737130000000     0.965450000000     0.831970000000     0          
C12      C      0.733560000000     0.943700000000     0.879040000000     0          
C13      C      0.831970000000     0.965450000000     0.737130000000     0          
C14      C      0.879040000000     0.943700000000     0.733560000000     0          
C15      C      0.965450000000     0.737130000000     0.965450000000     0          
C16      C      0.943700000000     0.733560000000     0.943700000000     0          
C17      C      0.965450000000     0.965450000000     0.737130000000     0          
C18      C      0.943700000000     0.943700000000     0.733560000000     0          
C19      C      0.737130000000     0.831970000000     0.965450000000     0          
C20      C      0.733560000000     0.879040000000     0.943700000000     0          
C21      C      0.831970000000     0.737130000000     0.965450000000     0          
C22      C      0.879040000000     0.733560000000     0.943700000000     0          
C23      C      0.965450000000     0.965450000000     0.831970000000     0          
C24      C      0.943700000000     0.943700000000     0.879040000000     0          
C25      C      0.762870000000     0.534550000000     0.668030000000     0          
C26      C      0.766440000000     0.556300000000     0.620960000000     0          
C27      C      0.534550000000     0.762870000000     0.534550000000     0          
C28      C      0.556300000000     0.766440000000     0.556300000000     0          
C29      C      0.534550000000     0.668030000000     0.534550000000     0          
C30      C      0.556300000000     0.620960000000     0.556300000000     0          
C31      C      0.668030000000     0.534550000000     0.762870000000     0          
C32      C      0.620960000000     0.556300000000     0.766440000000     0          
C33      C      0.668030000000     0.534550000000     0.534550000000     0          
C34      C      0.620960000000     0.556300000000     0.556300000000     0          
C35      C      0.534550000000     0.762870000000     0.668030000000     0          
C36      C      0.556300000000     0.766440000000     0.620960000000     0          
C37      C      0.534550000000     0.668030000000     0.762870000000     0          
C38      C      0.556300000000     0.620960000000     0.766440000000     0          
C39      C      0.762870000000     0.534550000000     0.534550000000     0          
C40      C      0.766440000000     0.556300000000     0.556300000000     0          
C41      C      0.534550000000     0.534550000000     0.762870000000     0          
C42      C      0.556300000000     0.556300000000     0.766440000000     0          
C43      C      0.668030000000     0.762870000000     0.534550000000     0          
C44      C      0.620960000000     0.766440000000     0.556300000000     0          
C45      C      0.762870000000     0.668030000000     0.534550000000     0          
C46      C      0.766440000000     0.620960000000     0.556300000000     0          
C47      C      0.534550000000     0.534550000000     0.668030000000     0          
C48      C      0.556300000000     0.556300000000     0.620960000000     0          
C49      C      0.900750000000     0.733610000000     0.900750000000     0          
C50      C      0.733610000000     0.900750000000     0.964890000000     0          
C51      C      0.900750000000     0.964890000000     0.900750000000     0          
C52      C      0.964890000000     0.900750000000     0.733610000000     0          
C53      C      0.900750000000     0.900750000000     0.964890000000     0          
C54      C      0.733610000000     0.964890000000     0.900750000000     0          
C55      C      0.900750000000     0.900750000000     0.733610000000     0          
C56      C      0.964890000000     0.733610000000     0.900750000000     0          
C57      C      0.900750000000     0.964890000000     0.733610000000     0          
C58      C      0.733610000000     0.900750000000     0.900750000000     0          
C59      C      0.900750000000     0.733610000000     0.964890000000     0          
C60      C      0.964890000000     0.900750000000     0.900750000000     0          
C61      C      0.766390000000     0.599250000000     0.599250000000     0          
C62      C      0.599250000000     0.766390000000     0.535110000000     0          
C63      C      0.535110000000     0.599250000000     0.599250000000     0          
C64      C      0.599250000000     0.535110000000     0.766390000000     0          
C65      C      0.599250000000     0.599250000000     0.535110000000     0          
C66      C      0.535110000000     0.766390000000     0.599250000000     0          
C67      C      0.599250000000     0.599250000000     0.766390000000     0          
C68      C      0.766390000000     0.535110000000     0.599250000000     0          
C69      C      0.535110000000     0.599250000000     0.766390000000     0          
C70      C      0.599250000000     0.766390000000     0.599250000000     0          
C71      C      0.766390000000     0.599250000000     0.535110000000     0          
C72      C      0.599250000000     0.535110000000     0.599250000000     0          
O1       O      0.503700000000     0.739340000000     0.813230000000     0          
O2       O      0.739340000000     0.503700000000     0.943730000000     0          
O3       O      0.813230000000     0.943730000000     0.503700000000     0          
O4       O      0.943730000000     0.813230000000     0.739340000000     0          
O5       O      0.503700000000     0.813230000000     0.943730000000     0          
O6       O      0.739340000000     0.943730000000     0.813230000000     0          
O7       O      0.813230000000     0.503700000000     0.739340000000     0          
O8       O      0.943730000000     0.739340000000     0.503700000000     0          
O9       O      0.503700000000     0.943730000000     0.739340000000     0          
O10      O      0.739340000000     0.813230000000     0.503700000000     0          
O11      O      0.813230000000     0.739340000000     0.943730000000     0          
O12      O      0.943730000000     0.503700000000     0.813230000000     0          
O13      O      0.760660000000     0.996300000000     0.686770000000     0          
O14      O      0.996300000000     0.760660000000     0.556270000000     0          
O15      O      0.556270000000     0.686770000000     0.996300000000     0          
O16      O      0.686770000000     0.556270000000     0.760660000000     0          
O17      O      0.686770000000     0.996300000000     0.556270000000     0          
O18      O      0.556270000000     0.760660000000     0.686770000000     0          
O19      O      0.996300000000     0.686770000000     0.760660000000     0          
O20      O      0.760660000000     0.556270000000     0.996300000000     0          
O21      O      0.556270000000     0.996300000000     0.760660000000     0          
O22      O      0.686770000000     0.760660000000     0.996300000000     0          
O23      O      0.760660000000     0.686770000000     0.556270000000     0          
O24      O      0.996300000000     0.556270000000     0.686770000000     0          
O25      O      0.996300000000     0.760660000000     0.686770000000     0          
O26      O      0.760660000000     0.996300000000     0.556270000000     0          
O27      O      0.686770000000     0.556270000000     0.996300000000     0          
O28      O      0.556270000000     0.686770000000     0.760660000000     0          
O29      O      0.996300000000     0.686770000000     0.556270000000     0          
O30      O      0.760660000000     0.556270000000     0.686770000000     0          
O31      O      0.686770000000     0.996300000000     0.760660000000     0          
O32      O      0.556270000000     0.760660000000     0.996300000000     0          
O33      O      0.996300000000     0.556270000000     0.760660000000     0          
O34      O      0.760660000000     0.686770000000     0.996300000000     0          
O35      O      0.686770000000     0.760660000000     0.556270000000     0          
O36      O      0.556270000000     0.996300000000     0.686770000000     0          
O37      O      0.739340000000     0.503700000000     0.813230000000     0          
O38      O      0.503700000000     0.739340000000     0.943730000000     0          
O39      O      0.943730000000     0.813230000000     0.503700000000     0          
O40      O      0.813230000000     0.943730000000     0.739340000000     0          
O41      O      0.813230000000     0.503700000000     0.943730000000     0          
O42      O      0.943730000000     0.739340000000     0.813230000000     0          
O43      O      0.503700000000     0.813230000000     0.739340000000     0          
O44      O      0.739340000000     0.943730000000     0.503700000000     0          
O45      O      0.943730000000     0.503700000000     0.739340000000     0          
O46      O      0.813230000000     0.739340000000     0.503700000000     0          
O47      O      0.739340000000     0.813230000000     0.943730000000     0          
O48      O      0.503700000000     0.943730000000     0.813230000000     0          


