data_ZOFZUR_clean

_audit_creation_method RASPA-1.0
_audit_creation_date 2025-1-23
_audit_author_name ''

_cell_length_a    38.9881
_cell_length_b    38.9881
_cell_length_c    22.2962
_cell_angle_alpha 90
_cell_angle_beta  90
_cell_angle_gamma 120
_cell_volume      58702.4

_symmetry_cell_setting          triclinic
_symmetry_space_group_name_Hall 'P 1'
_symmetry_space_group_name_H-M  'P 1'
_symmetry_Int_Tables_number     1

_symmetry_equiv_pos_as_xyz 'x,y,z'

loop_
_atom_site_label
_atom_site_type_symbol
_atom_site_fract_x
_atom_site_fract_y
_atom_site_fract_z
_atom_site_charge
O        O      0.394610000000     0.919900000000     0.498810000000    -1.025      
O        O      0.373480000000     0.897570000000     0.044850000000    -1.025      
O        O      0.683420000000     0.946990000000     0.457385000000    -1.025      
O        O      0.716820000000     0.008450000000     0.472800000000    -1.025      
O        O      0.667820000000     0.047180000000     0.064715000000    -1.025      
O        O      0.610380000000     0.002120000000     0.083945000000    -1.025      
O        O      0.571840000000     0.704280000000     0.005190000000    -1.025      
O        O      0.612680000000     0.742570000000     0.041825000000    -1.025      
O        O      0.061280000000     0.253230000000     0.165475000000    -1.025      
O        O      0.040150000000     0.230900000000     0.211515000000    -1.025      
O        O      0.350090000000     0.280320000000     0.124050000000    -1.025      
O        O      0.383490000000     0.341780000000     0.139465000000    -1.025      
O        O      0.334490000000     0.380510000000     0.231380000000    -1.025      
O        O      0.277050000000     0.335450000000     0.250610000000    -1.025      
O        O      0.238510000000     0.037610000000     0.171855000000    -1.025      
O        O      0.279350000000     0.075900000000     0.208490000000    -1.025      
O        O      0.727940000000     0.586570000000     0.332145000000    -1.025      
O        O      0.706810000000     0.564240000000     0.378185000000    -1.025      
O        O      0.016750000000     0.613660000000     0.290720000000    -1.025      
O        O      0.050150000000     0.675120000000     0.306135000000    -1.025      
O        O      0.001150000000     0.713850000000     0.398050000000    -1.025      
O        O      0.943710000000     0.668790000000     0.417280000000    -1.025      
O        O      0.905170000000     0.370950000000     0.338525000000    -1.025      
O        O      0.946010000000     0.409240000000     0.375160000000    -1.025      
O        O      0.080100000000     0.474710000000     0.498810000000    -1.025      
O        O      0.102430000000     0.475910000000     0.044850000000    -1.025      
O        O      0.053010000000     0.736430000000     0.457385000000    -1.025      
O        O      0.991550000000     0.708370000000     0.472800000000    -1.025      
O        O      0.952820000000     0.620640000000     0.064715000000    -1.025      
O        O      0.997880000000     0.608260000000     0.083945000000    -1.025      
O        O      0.295720000000     0.867560000000     0.005190000000    -1.025      
O        O      0.257430000000     0.870110000000     0.041825000000    -1.025      
O        O      0.746770000000     0.808040000000     0.165475000000    -1.025      
O        O      0.769100000000     0.809240000000     0.211515000000    -1.025      
O        O      0.719680000000     0.069760000000     0.124050000000    -1.025      
O        O      0.658220000000     0.041700000000     0.139465000000    -1.025      
O        O      0.619490000000     0.953970000000     0.231380000000    -1.025      
O        O      0.664550000000     0.941590000000     0.250610000000    -1.025      
O        O      0.962390000000     0.200890000000     0.171855000000    -1.025      
O        O      0.924100000000     0.203440000000     0.208490000000    -1.025      
O        O      0.413430000000     0.141380000000     0.332145000000    -1.025      
O        O      0.435760000000     0.142580000000     0.378185000000    -1.025      
O        O      0.386340000000     0.403100000000     0.290720000000    -1.025      
O        O      0.324880000000     0.375040000000     0.306135000000    -1.025      
O        O      0.286150000000     0.287310000000     0.398050000000    -1.025      
O        O      0.331210000000     0.274930000000     0.417280000000    -1.025      
O        O      0.629050000000     0.534230000000     0.338525000000    -1.025      
O        O      0.590760000000     0.536780000000     0.375160000000    -1.025      
O        O      0.525290000000     0.605390000000     0.498810000000    -1.025      
O        O      0.524090000000     0.626520000000     0.044850000000    -1.025      
O        O      0.263570000000     0.316580000000     0.457385000000    -1.025      
O        O      0.291630000000     0.283180000000     0.472800000000    -1.025      
O        O      0.379360000000     0.332180000000     0.064715000000    -1.025      
O        O      0.391740000000     0.389620000000     0.083945000000    -1.025      
O        O      0.132440000000     0.428160000000     0.005190000000    -1.025      
O        O      0.129890000000     0.387320000000     0.041825000000    -1.025      
O        O      0.191960000000     0.938720000000     0.165475000000    -1.025      
O        O      0.190760000000     0.959850000000     0.211515000000    -1.025      
O        O      0.930240000000     0.649910000000     0.124050000000    -1.025      
O        O      0.958300000000     0.616510000000     0.139465000000    -1.025      
O        O      0.046030000000     0.665510000000     0.231380000000    -1.025      
O        O      0.058410000000     0.722950000000     0.250610000000    -1.025      
O        O      0.799110000000     0.761490000000     0.171855000000    -1.025      
O        O      0.796560000000     0.720650000000     0.208490000000    -1.025      
O        O      0.858620000000     0.272060000000     0.332145000000    -1.025      
O        O      0.857420000000     0.293190000000     0.378185000000    -1.025      
O        O      0.596900000000     0.983250000000     0.290720000000    -1.025      
O        O      0.624960000000     0.949850000000     0.306135000000    -1.025      
O        O      0.712690000000     0.998850000000     0.398050000000    -1.025      
O        O      0.725070000000     0.056290000000     0.417280000000    -1.025      
O        O      0.465770000000     0.094830000000     0.338525000000    -1.025      
O        O      0.463220000000     0.053990000000     0.375160000000    -1.025      
O        O      0.080100000000     0.605390000000     0.248810000000    -1.025      
O        O      0.102430000000     0.626520000000     0.294850000000    -1.025      
O        O      0.053010000000     0.316580000000     0.207385000000    -1.025      
O        O      0.991550000000     0.283180000000     0.222800000000    -1.025      
O        O      0.952820000000     0.332180000000     0.314715000000    -1.025      
O        O      0.997880000000     0.389620000000     0.333945000000    -1.025      
O        O      0.295720000000     0.428160000000     0.255190000000    -1.025      
O        O      0.257430000000     0.387320000000     0.291825000000    -1.025      
O        O      0.746770000000     0.938720000000     0.415475000000    -1.025      
O        O      0.769100000000     0.959850000000     0.461515000000    -1.025      
O        O      0.719680000000     0.649910000000     0.374050000000    -1.025      
O        O      0.658220000000     0.616510000000     0.389465000000    -1.025      
O        O      0.619490000000     0.665510000000     0.481380000000    -1.025      
O        O      0.664550000000     0.722950000000     0.000610000000    -1.025      
O        O      0.962390000000     0.761490000000     0.421855000000    -1.025      
O        O      0.924100000000     0.720650000000     0.458490000000    -1.025      
O        O      0.413430000000     0.272060000000     0.082145000000    -1.025      
O        O      0.435760000000     0.293190000000     0.128185000000    -1.025      
O        O      0.386340000000     0.983250000000     0.040720000000    -1.025      
O        O      0.324880000000     0.949850000000     0.056135000000    -1.025      
O        O      0.286150000000     0.998850000000     0.148050000000    -1.025      
O        O      0.331210000000     0.056290000000     0.167280000000    -1.025      
O        O      0.629050000000     0.094830000000     0.088525000000    -1.025      
O        O      0.590760000000     0.053990000000     0.125160000000    -1.025      
O        O      0.525290000000     0.919900000000     0.248810000000    -1.025      
O        O      0.524090000000     0.897570000000     0.294850000000    -1.025      
O        O      0.263570000000     0.946990000000     0.207385000000    -1.025      
O        O      0.291630000000     0.008450000000     0.222800000000    -1.025      
O        O      0.379360000000     0.047180000000     0.314715000000    -1.025      
O        O      0.391740000000     0.002120000000     0.333945000000    -1.025      
O        O      0.132440000000     0.704280000000     0.255190000000    -1.025      
O        O      0.129890000000     0.742570000000     0.291825000000    -1.025      
O        O      0.191960000000     0.253230000000     0.415475000000    -1.025      
O        O      0.190760000000     0.230900000000     0.461515000000    -1.025      
O        O      0.930240000000     0.280320000000     0.374050000000    -1.025      
O        O      0.958300000000     0.341780000000     0.389465000000    -1.025      
O        O      0.046030000000     0.380510000000     0.481380000000    -1.025      
O        O      0.058410000000     0.335450000000     0.000610000000    -1.025      
O        O      0.799110000000     0.037610000000     0.421855000000    -1.025      
O        O      0.796560000000     0.075900000000     0.458490000000    -1.025      
O        O      0.858620000000     0.586570000000     0.082145000000    -1.025      
O        O      0.857420000000     0.564240000000     0.128185000000    -1.025      
O        O      0.596900000000     0.613660000000     0.040720000000    -1.025      
O        O      0.624960000000     0.675120000000     0.056135000000    -1.025      
O        O      0.712690000000     0.713850000000     0.148050000000    -1.025      
O        O      0.725070000000     0.668790000000     0.167280000000    -1.025      
O        O      0.465770000000     0.370950000000     0.088525000000    -1.025      
O        O      0.463220000000     0.409240000000     0.125160000000    -1.025      
O        O      0.394610000000     0.474710000000     0.248810000000    -1.025      
O        O      0.373480000000     0.475910000000     0.294850000000    -1.025      
O        O      0.683420000000     0.736430000000     0.207385000000    -1.025      
O        O      0.716820000000     0.708370000000     0.222800000000    -1.025      
O        O      0.667820000000     0.620640000000     0.314715000000    -1.025      
O        O      0.610380000000     0.608260000000     0.333945000000    -1.025      
O        O      0.571840000000     0.867560000000     0.255190000000    -1.025      
O        O      0.612680000000     0.870110000000     0.291825000000    -1.025      
O        O      0.061280000000     0.808040000000     0.415475000000    -1.025      
O        O      0.040150000000     0.809240000000     0.461515000000    -1.025      
O        O      0.350090000000     0.069760000000     0.374050000000    -1.025      
O        O      0.383490000000     0.041700000000     0.389465000000    -1.025      
O        O      0.334490000000     0.953970000000     0.481380000000    -1.025      
O        O      0.277050000000     0.941590000000     0.000610000000    -1.025      
O        O      0.238510000000     0.200890000000     0.421855000000    -1.025      
O        O      0.279350000000     0.203440000000     0.458490000000    -1.025      
O        O      0.727940000000     0.141380000000     0.082145000000    -1.025      
O        O      0.706810000000     0.142580000000     0.128185000000    -1.025      
O        O      0.016750000000     0.403100000000     0.040720000000    -1.025      
O        O      0.050150000000     0.375040000000     0.056135000000    -1.025      
O        O      0.001150000000     0.287310000000     0.148050000000    -1.025      
O        O      0.943710000000     0.274930000000     0.167280000000    -1.025      
O        O      0.905170000000     0.534230000000     0.088525000000    -1.025      
O        O      0.946010000000     0.536780000000     0.125160000000    -1.025      
O        O      0.394610000000     0.919900000000     0.998810000000    -1.025      
O        O      0.373480000000     0.897570000000     0.544850000000    -1.025      
O        O      0.683420000000     0.946990000000     0.957385000000    -1.025      
O        O      0.716820000000     0.008450000000     0.972800000000    -1.025      
O        O      0.667820000000     0.047180000000     0.564715000000    -1.025      
O        O      0.610380000000     0.002120000000     0.583945000000    -1.025      
O        O      0.571840000000     0.704280000000     0.505190000000    -1.025      
O        O      0.612680000000     0.742570000000     0.541825000000    -1.025      
O        O      0.061280000000     0.253230000000     0.665475000000    -1.025      
O        O      0.040150000000     0.230900000000     0.711515000000    -1.025      
O        O      0.350090000000     0.280320000000     0.624050000000    -1.025      
O        O      0.383490000000     0.341780000000     0.639465000000    -1.025      
O        O      0.334490000000     0.380510000000     0.731380000000    -1.025      
O        O      0.277050000000     0.335450000000     0.750610000000    -1.025      
O        O      0.238510000000     0.037610000000     0.671855000000    -1.025      
O        O      0.279350000000     0.075900000000     0.708490000000    -1.025      
O        O      0.727940000000     0.586570000000     0.832145000000    -1.025      
O        O      0.706810000000     0.564240000000     0.878185000000    -1.025      
O        O      0.016750000000     0.613660000000     0.790720000000    -1.025      
O        O      0.050150000000     0.675120000000     0.806135000000    -1.025      
O        O      0.001150000000     0.713850000000     0.898050000000    -1.025      
O        O      0.943710000000     0.668790000000     0.917280000000    -1.025      
O        O      0.905170000000     0.370950000000     0.838525000000    -1.025      
O        O      0.946010000000     0.409240000000     0.875160000000    -1.025      
O        O      0.080100000000     0.474710000000     0.998810000000    -1.025      
O        O      0.102430000000     0.475910000000     0.544850000000    -1.025      
O        O      0.053010000000     0.736430000000     0.957385000000    -1.025      
O        O      0.991550000000     0.708370000000     0.972800000000    -1.025      
O        O      0.952820000000     0.620640000000     0.564715000000    -1.025      
O        O      0.997880000000     0.608260000000     0.583945000000    -1.025      
O        O      0.295720000000     0.867560000000     0.505190000000    -1.025      
O        O      0.257430000000     0.870110000000     0.541825000000    -1.025      
O        O      0.746770000000     0.808040000000     0.665475000000    -1.025      
O        O      0.769100000000     0.809240000000     0.711515000000    -1.025      
O        O      0.719680000000     0.069760000000     0.624050000000    -1.025      
O        O      0.658220000000     0.041700000000     0.639465000000    -1.025      
O        O      0.619490000000     0.953970000000     0.731380000000    -1.025      
O        O      0.664550000000     0.941590000000     0.750610000000    -1.025      
O        O      0.962390000000     0.200890000000     0.671855000000    -1.025      
O        O      0.924100000000     0.203440000000     0.708490000000    -1.025      
O        O      0.413430000000     0.141380000000     0.832145000000    -1.025      
O        O      0.435760000000     0.142580000000     0.878185000000    -1.025      
O        O      0.386340000000     0.403100000000     0.790720000000    -1.025      
O        O      0.324880000000     0.375040000000     0.806135000000    -1.025      
O        O      0.286150000000     0.287310000000     0.898050000000    -1.025      
O        O      0.331210000000     0.274930000000     0.917280000000    -1.025      
O        O      0.629050000000     0.534230000000     0.838525000000    -1.025      
O        O      0.590760000000     0.536780000000     0.875160000000    -1.025      
O        O      0.525290000000     0.605390000000     0.998810000000    -1.025      
O        O      0.524090000000     0.626520000000     0.544850000000    -1.025      
O        O      0.263570000000     0.316580000000     0.957385000000    -1.025      
O        O      0.291630000000     0.283180000000     0.972800000000    -1.025      
O        O      0.379360000000     0.332180000000     0.564715000000    -1.025      
O        O      0.391740000000     0.389620000000     0.583945000000    -1.025      
O        O      0.132440000000     0.428160000000     0.505190000000    -1.025      
O        O      0.129890000000     0.387320000000     0.541825000000    -1.025      
O        O      0.191960000000     0.938720000000     0.665475000000    -1.025      
O        O      0.190760000000     0.959850000000     0.711515000000    -1.025      
O        O      0.930240000000     0.649910000000     0.624050000000    -1.025      
O        O      0.958300000000     0.616510000000     0.639465000000    -1.025      
O        O      0.046030000000     0.665510000000     0.731380000000    -1.025      
O        O      0.058410000000     0.722950000000     0.750610000000    -1.025      
O        O      0.799110000000     0.761490000000     0.671855000000    -1.025      
O        O      0.796560000000     0.720650000000     0.708490000000    -1.025      
O        O      0.858620000000     0.272060000000     0.832145000000    -1.025      
O        O      0.857420000000     0.293190000000     0.878185000000    -1.025      
O        O      0.596900000000     0.983250000000     0.790720000000    -1.025      
O        O      0.624960000000     0.949850000000     0.806135000000    -1.025      
O        O      0.712690000000     0.998850000000     0.898050000000    -1.025      
O        O      0.725070000000     0.056290000000     0.917280000000    -1.025      
O        O      0.465770000000     0.094830000000     0.838525000000    -1.025      
O        O      0.463220000000     0.053990000000     0.875160000000    -1.025      
O        O      0.080100000000     0.605390000000     0.748810000000    -1.025      
O        O      0.102430000000     0.626520000000     0.794850000000    -1.025      
O        O      0.053010000000     0.316580000000     0.707385000000    -1.025      
O        O      0.991550000000     0.283180000000     0.722800000000    -1.025      
O        O      0.952820000000     0.332180000000     0.814715000000    -1.025      
O        O      0.997880000000     0.389620000000     0.833945000000    -1.025      
O        O      0.295720000000     0.428160000000     0.755190000000    -1.025      
O        O      0.257430000000     0.387320000000     0.791825000000    -1.025      
O        O      0.746770000000     0.938720000000     0.915475000000    -1.025      
O        O      0.769100000000     0.959850000000     0.961515000000    -1.025      
O        O      0.719680000000     0.649910000000     0.874050000000    -1.025      
O        O      0.658220000000     0.616510000000     0.889465000000    -1.025      
O        O      0.619490000000     0.665510000000     0.981380000000    -1.025      
O        O      0.664550000000     0.722950000000     0.500610000000    -1.025      
O        O      0.962390000000     0.761490000000     0.921855000000    -1.025      
O        O      0.924100000000     0.720650000000     0.958490000000    -1.025      
O        O      0.413430000000     0.272060000000     0.582145000000    -1.025      
O        O      0.435760000000     0.293190000000     0.628185000000    -1.025      
O        O      0.386340000000     0.983250000000     0.540720000000    -1.025      
O        O      0.324880000000     0.949850000000     0.556135000000    -1.025      
O        O      0.286150000000     0.998850000000     0.648050000000    -1.025      
O        O      0.331210000000     0.056290000000     0.667280000000    -1.025      
O        O      0.629050000000     0.094830000000     0.588525000000    -1.025      
O        O      0.590760000000     0.053990000000     0.625160000000    -1.025      
O        O      0.525290000000     0.919900000000     0.748810000000    -1.025      
O        O      0.524090000000     0.897570000000     0.794850000000    -1.025      
O        O      0.263570000000     0.946990000000     0.707385000000    -1.025      
O        O      0.291630000000     0.008450000000     0.722800000000    -1.025      
O        O      0.379360000000     0.047180000000     0.814715000000    -1.025      
O        O      0.391740000000     0.002120000000     0.833945000000    -1.025      
O        O      0.132440000000     0.704280000000     0.755190000000    -1.025      
O        O      0.129890000000     0.742570000000     0.791825000000    -1.025      
O        O      0.191960000000     0.253230000000     0.915475000000    -1.025      
O        O      0.190760000000     0.230900000000     0.961515000000    -1.025      
O        O      0.930240000000     0.280320000000     0.874050000000    -1.025      
O        O      0.958300000000     0.341780000000     0.889465000000    -1.025      
O        O      0.046030000000     0.380510000000     0.981380000000    -1.025      
O        O      0.058410000000     0.335450000000     0.500610000000    -1.025      
O        O      0.799110000000     0.037610000000     0.921855000000    -1.025      
O        O      0.796560000000     0.075900000000     0.958490000000    -1.025      
O        O      0.858620000000     0.586570000000     0.582145000000    -1.025      
O        O      0.857420000000     0.564240000000     0.628185000000    -1.025      
O        O      0.596900000000     0.613660000000     0.540720000000    -1.025      
O        O      0.624960000000     0.675120000000     0.556135000000    -1.025      
O        O      0.712690000000     0.713850000000     0.648050000000    -1.025      
O        O      0.725070000000     0.668790000000     0.667280000000    -1.025      
O        O      0.465770000000     0.370950000000     0.588525000000    -1.025      
O        O      0.463220000000     0.409240000000     0.625160000000    -1.025      
O        O      0.394610000000     0.474710000000     0.748810000000    -1.025      
O        O      0.373480000000     0.475910000000     0.794850000000    -1.025      
O        O      0.683420000000     0.736430000000     0.707385000000    -1.025      
O        O      0.716820000000     0.708370000000     0.722800000000    -1.025      
O        O      0.667820000000     0.620640000000     0.814715000000    -1.025      
O        O      0.610380000000     0.608260000000     0.833945000000    -1.025      
O        O      0.571840000000     0.867560000000     0.755190000000    -1.025      
O        O      0.612680000000     0.870110000000     0.791825000000    -1.025      
O        O      0.061280000000     0.808040000000     0.915475000000    -1.025      
O        O      0.040150000000     0.809240000000     0.961515000000    -1.025      
O        O      0.350090000000     0.069760000000     0.874050000000    -1.025      
O        O      0.383490000000     0.041700000000     0.889465000000    -1.025      
O        O      0.334490000000     0.953970000000     0.981380000000    -1.025      
O        O      0.277050000000     0.941590000000     0.500610000000    -1.025      
O        O      0.238510000000     0.200890000000     0.921855000000    -1.025      
O        O      0.279350000000     0.203440000000     0.958490000000    -1.025      
O        O      0.727940000000     0.141380000000     0.582145000000    -1.025      
O        O      0.706810000000     0.142580000000     0.628185000000    -1.025      
O        O      0.016750000000     0.403100000000     0.540720000000    -1.025      
O        O      0.050150000000     0.375040000000     0.556135000000    -1.025      
O        O      0.001150000000     0.287310000000     0.648050000000    -1.025      
O        O      0.943710000000     0.274930000000     0.667280000000    -1.025      
O        O      0.905170000000     0.534230000000     0.588525000000    -1.025      
O        O      0.946010000000     0.536780000000     0.625160000000    -1.025      
H        H      0.547800000000     0.741900000000     0.473750000000     0          
H        H      0.532900000000     0.791100000000     0.463900000000     0          
H        H      0.587000000000     0.847900000000     0.037600000000     0          
H        H      0.605100000000     0.801300000000     0.048500000000     0          
H        H      0.560500000000     0.869800000000     0.475300000000     0          
H        H      0.518500000000     0.842200000000     0.488850000000     0          
H        H      0.540600000000     0.885500000000     0.058050000000     0          
H        H      0.514800000000     0.844400000000     0.042850000000     0          
H        H      0.468100000000     0.862300000000     0.075400000000     0          
H        H      0.416300000000     0.873500000000     0.067900000000     0          
H        H      0.456800000000     0.918200000000     0.487550000000     0          
H        H      0.507900000000     0.904900000000     0.494600000000     0          
H        H      0.576700000000     0.943700000000     0.052450000000     0          
H        H      0.684200000000     0.017700000000     0.018750000000     0          
H        H      0.618200000000     0.910500000000     0.483100000000     0          
H        H      0.214470000000     0.075230000000     0.140415000000     0          
H        H      0.199570000000     0.124430000000     0.130565000000     0          
H        H      0.253670000000     0.181230000000     0.204265000000     0          
H        H      0.271770000000     0.134630000000     0.215165000000     0          
H        H      0.227170000000     0.203130000000     0.141965000000     0          
H        H      0.185170000000     0.175530000000     0.155515000000     0          
H        H      0.207270000000     0.218830000000     0.224715000000     0          
H        H      0.181470000000     0.177730000000     0.209515000000     0          
H        H      0.134770000000     0.195630000000     0.242065000000     0          
H        H      0.082970000000     0.206830000000     0.234565000000     0          
H        H      0.123470000000     0.251530000000     0.154215000000     0          
H        H      0.174570000000     0.238230000000     0.161265000000     0          
H        H      0.243370000000     0.277030000000     0.219115000000     0          
H        H      0.350870000000     0.351030000000     0.185415000000     0          
H        H      0.284870000000     0.243830000000     0.149765000000     0          
H        H      0.881130000000     0.408570000000     0.307085000000     0          
H        H      0.866230000000     0.457770000000     0.297235000000     0          
H        H      0.920330000000     0.514570000000     0.370935000000     0          
H        H      0.938430000000     0.467970000000     0.381835000000     0          
H        H      0.893830000000     0.536470000000     0.308635000000     0          
H        H      0.851830000000     0.508870000000     0.322185000000     0          
H        H      0.873930000000     0.552170000000     0.391385000000     0          
H        H      0.848130000000     0.511070000000     0.376185000000     0          
H        H      0.801430000000     0.528970000000     0.408735000000     0          
H        H      0.749630000000     0.540170000000     0.401235000000     0          
H        H      0.790130000000     0.584870000000     0.320885000000     0          
H        H      0.841230000000     0.571570000000     0.327935000000     0          
H        H      0.910030000000     0.610370000000     0.385785000000     0          
H        H      0.017530000000     0.684370000000     0.352085000000     0          
H        H      0.951530000000     0.577170000000     0.316435000000     0          
H        H      0.258100000000     0.805900000000     0.473750000000     0          
H        H      0.208900000000     0.741800000000     0.463900000000     0          
H        H      0.152100000000     0.739100000000     0.037600000000     0          
H        H      0.198700000000     0.803800000000     0.048500000000     0          
H        H      0.130200000000     0.690700000000     0.475300000000     0          
H        H      0.157800000000     0.676300000000     0.488850000000     0          
H        H      0.114500000000     0.655100000000     0.058050000000     0          
H        H      0.155600000000     0.670400000000     0.042850000000     0          
H        H      0.137700000000     0.605800000000     0.075400000000     0          
H        H      0.126500000000     0.542800000000     0.067900000000     0          
H        H      0.081800000000     0.538600000000     0.487550000000     0          
H        H      0.095100000000     0.603000000000     0.494600000000     0          
H        H      0.056300000000     0.633000000000     0.052450000000     0          
H        H      0.982300000000     0.666500000000     0.018750000000     0          
H        H      0.089500000000     0.707700000000     0.483100000000     0          
H        H      0.924770000000     0.139230000000     0.140415000000     0          
H        H      0.875570000000     0.075130000000     0.130565000000     0          
H        H      0.818770000000     0.072430000000     0.204265000000     0          
H        H      0.865370000000     0.137130000000     0.215165000000     0          
H        H      0.796870000000     0.024030000000     0.141965000000     0          
H        H      0.824470000000     0.009630000000     0.155515000000     0          
H        H      0.781170000000     0.988430000000     0.224715000000     0          
H        H      0.822270000000     0.003730000000     0.209515000000     0          
H        H      0.804370000000     0.939130000000     0.242065000000     0          
H        H      0.793170000000     0.876130000000     0.234565000000     0          
H        H      0.748470000000     0.871930000000     0.154215000000     0          
H        H      0.761770000000     0.936330000000     0.161265000000     0          
H        H      0.722970000000     0.966330000000     0.219115000000     0          
H        H      0.648970000000     0.999830000000     0.185415000000     0          
H        H      0.756170000000     0.041030000000     0.149765000000     0          
H        H      0.591430000000     0.472570000000     0.307085000000     0          
H        H      0.542230000000     0.408470000000     0.297235000000     0          
H        H      0.485430000000     0.405770000000     0.370935000000     0          
H        H      0.532030000000     0.470470000000     0.381835000000     0          
H        H      0.463530000000     0.357370000000     0.308635000000     0          
H        H      0.491130000000     0.342970000000     0.322185000000     0          
H        H      0.447830000000     0.321770000000     0.391385000000     0          
H        H      0.488930000000     0.337070000000     0.376185000000     0          
H        H      0.471030000000     0.272470000000     0.408735000000     0          
H        H      0.459830000000     0.209470000000     0.401235000000     0          
H        H      0.415130000000     0.205270000000     0.320885000000     0          
H        H      0.428430000000     0.269670000000     0.327935000000     0          
H        H      0.389630000000     0.299670000000     0.385785000000     0          
H        H      0.315630000000     0.333170000000     0.352085000000     0          
H        H      0.422830000000     0.374370000000     0.316435000000     0          
H        H      0.194100000000     0.452200000000     0.473750000000     0          
H        H      0.258200000000     0.467100000000     0.463900000000     0          
H        H      0.260900000000     0.413000000000     0.037600000000     0          
H        H      0.196200000000     0.394900000000     0.048500000000     0          
H        H      0.309300000000     0.439500000000     0.475300000000     0          
H        H      0.323700000000     0.481500000000     0.488850000000     0          
H        H      0.344900000000     0.459400000000     0.058050000000     0          
H        H      0.329600000000     0.485200000000     0.042850000000     0          
H        H      0.394200000000     0.531900000000     0.075400000000     0          
H        H      0.457200000000     0.583700000000     0.067900000000     0          
H        H      0.461400000000     0.543200000000     0.487550000000     0          
H        H      0.397000000000     0.492100000000     0.494600000000     0          
H        H      0.367000000000     0.423300000000     0.052450000000     0          
H        H      0.333500000000     0.315800000000     0.018750000000     0          
H        H      0.292300000000     0.381800000000     0.483100000000     0          
H        H      0.860770000000     0.785530000000     0.140415000000     0          
H        H      0.924870000000     0.800430000000     0.130565000000     0          
H        H      0.927570000000     0.746330000000     0.204265000000     0          
H        H      0.862870000000     0.728230000000     0.215165000000     0          
H        H      0.975970000000     0.772830000000     0.141965000000     0          
H        H      0.990370000000     0.814830000000     0.155515000000     0          
H        H      0.011570000000     0.792730000000     0.224715000000     0          
H        H      0.996270000000     0.818530000000     0.209515000000     0          
H        H      0.060870000000     0.865230000000     0.242065000000     0          
H        H      0.123870000000     0.917030000000     0.234565000000     0          
H        H      0.128070000000     0.876530000000     0.154215000000     0          
H        H      0.063670000000     0.825430000000     0.161265000000     0          
H        H      0.033670000000     0.756630000000     0.219115000000     0          
H        H      0.000170000000     0.649130000000     0.185415000000     0          
H        H      0.958970000000     0.715130000000     0.149765000000     0          
H        H      0.527430000000     0.118870000000     0.307085000000     0          
H        H      0.591530000000     0.133770000000     0.297235000000     0          
H        H      0.594230000000     0.079670000000     0.370935000000     0          
H        H      0.529530000000     0.061570000000     0.381835000000     0          
H        H      0.642630000000     0.106170000000     0.308635000000     0          
H        H      0.657030000000     0.148170000000     0.322185000000     0          
H        H      0.678230000000     0.126070000000     0.391385000000     0          
H        H      0.662930000000     0.151870000000     0.376185000000     0          
H        H      0.727530000000     0.198570000000     0.408735000000     0          
H        H      0.790530000000     0.250370000000     0.401235000000     0          
H        H      0.794730000000     0.209870000000     0.320885000000     0          
H        H      0.730330000000     0.158770000000     0.327935000000     0          
H        H      0.700330000000     0.089970000000     0.385785000000     0          
H        H      0.666830000000     0.982470000000     0.352085000000     0          
H        H      0.625630000000     0.048470000000     0.316435000000     0          
H        H      0.258100000000     0.452200000000     0.223750000000     0          
H        H      0.208900000000     0.467100000000     0.213900000000     0          
H        H      0.152100000000     0.413000000000     0.287600000000     0          
H        H      0.198700000000     0.394900000000     0.298500000000     0          
H        H      0.130200000000     0.439500000000     0.225300000000     0          
H        H      0.157800000000     0.481500000000     0.238850000000     0          
H        H      0.114500000000     0.459400000000     0.308050000000     0          
H        H      0.155600000000     0.485200000000     0.292850000000     0          
H        H      0.137700000000     0.531900000000     0.325400000000     0          
H        H      0.126500000000     0.583700000000     0.317900000000     0          
H        H      0.081800000000     0.543200000000     0.237550000000     0          
H        H      0.095100000000     0.492100000000     0.244600000000     0          
H        H      0.056300000000     0.423300000000     0.302450000000     0          
H        H      0.982300000000     0.315800000000     0.268750000000     0          
H        H      0.089500000000     0.381800000000     0.233100000000     0          
H        H      0.924770000000     0.785530000000     0.390415000000     0          
H        H      0.875570000000     0.800430000000     0.380565000000     0          
H        H      0.818770000000     0.746330000000     0.454265000000     0          
H        H      0.865370000000     0.728230000000     0.465165000000     0          
H        H      0.796870000000     0.772830000000     0.391965000000     0          
H        H      0.824470000000     0.814830000000     0.405515000000     0          
H        H      0.781170000000     0.792730000000     0.474715000000     0          
H        H      0.822270000000     0.818530000000     0.459515000000     0          
H        H      0.804370000000     0.865230000000     0.492065000000     0          
H        H      0.793170000000     0.917030000000     0.484565000000     0          
H        H      0.748470000000     0.876530000000     0.404215000000     0          
H        H      0.761770000000     0.825430000000     0.411265000000     0          
H        H      0.722970000000     0.756630000000     0.469115000000     0          
H        H      0.648970000000     0.649130000000     0.435415000000     0          
H        H      0.756170000000     0.715130000000     0.399765000000     0          
H        H      0.591430000000     0.118870000000     0.057085000000     0          
H        H      0.542230000000     0.133770000000     0.047235000000     0          
H        H      0.485430000000     0.079670000000     0.120935000000     0          
H        H      0.532030000000     0.061570000000     0.131835000000     0          
H        H      0.463530000000     0.106170000000     0.058635000000     0          
H        H      0.491130000000     0.148170000000     0.072185000000     0          
H        H      0.447830000000     0.126070000000     0.141385000000     0          
H        H      0.488930000000     0.151870000000     0.126185000000     0          
H        H      0.471030000000     0.198570000000     0.158735000000     0          
H        H      0.459830000000     0.250370000000     0.151235000000     0          
H        H      0.415130000000     0.209870000000     0.070885000000     0          
H        H      0.428430000000     0.158770000000     0.077935000000     0          
H        H      0.389630000000     0.089970000000     0.135785000000     0          
H        H      0.315630000000     0.982470000000     0.102085000000     0          
H        H      0.422830000000     0.048470000000     0.066435000000     0          
H        H      0.194100000000     0.741900000000     0.223750000000     0          
H        H      0.258200000000     0.791100000000     0.213900000000     0          
H        H      0.260900000000     0.847900000000     0.287600000000     0          
H        H      0.196200000000     0.801300000000     0.298500000000     0          
H        H      0.309300000000     0.869800000000     0.225300000000     0          
H        H      0.323700000000     0.842200000000     0.238850000000     0          
H        H      0.344900000000     0.885500000000     0.308050000000     0          
H        H      0.329600000000     0.844400000000     0.292850000000     0          
H        H      0.394200000000     0.862300000000     0.325400000000     0          
H        H      0.457200000000     0.873500000000     0.317900000000     0          
H        H      0.461400000000     0.918200000000     0.237550000000     0          
H        H      0.397000000000     0.904900000000     0.244600000000     0          
H        H      0.367000000000     0.943700000000     0.302450000000     0          
H        H      0.333500000000     0.017700000000     0.268750000000     0          
H        H      0.292300000000     0.910500000000     0.233100000000     0          
H        H      0.860770000000     0.075230000000     0.390415000000     0          
H        H      0.924870000000     0.124430000000     0.380565000000     0          
H        H      0.927570000000     0.181230000000     0.454265000000     0          
H        H      0.862870000000     0.134630000000     0.465165000000     0          
H        H      0.975970000000     0.203130000000     0.391965000000     0          
H        H      0.990370000000     0.175530000000     0.405515000000     0          
H        H      0.011570000000     0.218830000000     0.474715000000     0          
H        H      0.996270000000     0.177730000000     0.459515000000     0          
H        H      0.060870000000     0.195630000000     0.492065000000     0          
H        H      0.123870000000     0.206830000000     0.484565000000     0          
H        H      0.128070000000     0.251530000000     0.404215000000     0          
H        H      0.063670000000     0.238230000000     0.411265000000     0          
H        H      0.033670000000     0.277030000000     0.469115000000     0          
H        H      0.000170000000     0.351030000000     0.435415000000     0          
H        H      0.958970000000     0.243830000000     0.399765000000     0          
H        H      0.527430000000     0.408570000000     0.057085000000     0          
H        H      0.591530000000     0.457770000000     0.047235000000     0          
H        H      0.594230000000     0.514570000000     0.120935000000     0          
H        H      0.529530000000     0.467970000000     0.131835000000     0          
H        H      0.642630000000     0.536470000000     0.058635000000     0          
H        H      0.657030000000     0.508870000000     0.072185000000     0          
H        H      0.678230000000     0.552170000000     0.141385000000     0          
H        H      0.662930000000     0.511070000000     0.126185000000     0          
H        H      0.727530000000     0.528970000000     0.158735000000     0          
H        H      0.790530000000     0.540170000000     0.151235000000     0          
H        H      0.794730000000     0.584870000000     0.070885000000     0          
H        H      0.730330000000     0.571570000000     0.077935000000     0          
H        H      0.700330000000     0.610370000000     0.135785000000     0          
H        H      0.666830000000     0.684370000000     0.102085000000     0          
H        H      0.625630000000     0.577170000000     0.066435000000     0          
H        H      0.547800000000     0.805900000000     0.223750000000     0          
H        H      0.532900000000     0.741800000000     0.213900000000     0          
H        H      0.587000000000     0.739100000000     0.287600000000     0          
H        H      0.605100000000     0.803800000000     0.298500000000     0          
H        H      0.560500000000     0.690700000000     0.225300000000     0          
H        H      0.518500000000     0.676300000000     0.238850000000     0          
H        H      0.540600000000     0.655100000000     0.308050000000     0          
H        H      0.514800000000     0.670400000000     0.292850000000     0          
H        H      0.468100000000     0.605800000000     0.325400000000     0          
H        H      0.416300000000     0.542800000000     0.317900000000     0          
H        H      0.456800000000     0.538600000000     0.237550000000     0          
H        H      0.507900000000     0.603000000000     0.244600000000     0          
H        H      0.576700000000     0.633000000000     0.302450000000     0          
H        H      0.684200000000     0.666500000000     0.268750000000     0          
H        H      0.618200000000     0.707700000000     0.233100000000     0          
H        H      0.214470000000     0.139230000000     0.390415000000     0          
H        H      0.199570000000     0.075130000000     0.380565000000     0          
H        H      0.253670000000     0.072430000000     0.454265000000     0          
H        H      0.271770000000     0.137130000000     0.465165000000     0          
H        H      0.227170000000     0.024030000000     0.391965000000     0          
H        H      0.185170000000     0.009630000000     0.405515000000     0          
H        H      0.207270000000     0.988430000000     0.474715000000     0          
H        H      0.181470000000     0.003730000000     0.459515000000     0          
H        H      0.134770000000     0.939130000000     0.492065000000     0          
H        H      0.082970000000     0.876130000000     0.484565000000     0          
H        H      0.123470000000     0.871930000000     0.404215000000     0          
H        H      0.174570000000     0.936330000000     0.411265000000     0          
H        H      0.243370000000     0.966330000000     0.469115000000     0          
H        H      0.350870000000     0.999830000000     0.435415000000     0          
H        H      0.284870000000     0.041030000000     0.399765000000     0          
H        H      0.881130000000     0.472570000000     0.057085000000     0          
H        H      0.866230000000     0.408470000000     0.047235000000     0          
H        H      0.920330000000     0.405770000000     0.120935000000     0          
H        H      0.938430000000     0.470470000000     0.131835000000     0          
H        H      0.893830000000     0.357370000000     0.058635000000     0          
H        H      0.851830000000     0.342970000000     0.072185000000     0          
H        H      0.873930000000     0.321770000000     0.141385000000     0          
H        H      0.848130000000     0.337070000000     0.126185000000     0          
H        H      0.801430000000     0.272470000000     0.158735000000     0          
H        H      0.749630000000     0.209470000000     0.151235000000     0          
H        H      0.790130000000     0.205270000000     0.070885000000     0          
H        H      0.841230000000     0.269670000000     0.077935000000     0          
H        H      0.910030000000     0.299670000000     0.135785000000     0          
H        H      0.017530000000     0.333170000000     0.102085000000     0          
H        H      0.951530000000     0.374370000000     0.066435000000     0          
H        H      0.547800000000     0.741900000000     0.973750000000     0          
H        H      0.532900000000     0.791100000000     0.963900000000     0          
H        H      0.587000000000     0.847900000000     0.537600000000     0          
H        H      0.605100000000     0.801300000000     0.548500000000     0          
H        H      0.560500000000     0.869800000000     0.975300000000     0          
H        H      0.518500000000     0.842200000000     0.988850000000     0          
H        H      0.540600000000     0.885500000000     0.558050000000     0          
H        H      0.514800000000     0.844400000000     0.542850000000     0          
H        H      0.468100000000     0.862300000000     0.575400000000     0          
H        H      0.416300000000     0.873500000000     0.567900000000     0          
H        H      0.456800000000     0.918200000000     0.987550000000     0          
H        H      0.507900000000     0.904900000000     0.994600000000     0          
H        H      0.576700000000     0.943700000000     0.552450000000     0          
H        H      0.684200000000     0.017700000000     0.518750000000     0          
H        H      0.618200000000     0.910500000000     0.983100000000     0          
H        H      0.214470000000     0.075230000000     0.640415000000     0          
H        H      0.199570000000     0.124430000000     0.630565000000     0          
H        H      0.253670000000     0.181230000000     0.704265000000     0          
H        H      0.271770000000     0.134630000000     0.715165000000     0          
H        H      0.227170000000     0.203130000000     0.641965000000     0          
H        H      0.185170000000     0.175530000000     0.655515000000     0          
H        H      0.207270000000     0.218830000000     0.724715000000     0          
H        H      0.181470000000     0.177730000000     0.709515000000     0          
H        H      0.134770000000     0.195630000000     0.742065000000     0          
H        H      0.082970000000     0.206830000000     0.734565000000     0          
H        H      0.123470000000     0.251530000000     0.654215000000     0          
H        H      0.174570000000     0.238230000000     0.661265000000     0          
H        H      0.243370000000     0.277030000000     0.719115000000     0          
H        H      0.350870000000     0.351030000000     0.685415000000     0          
H        H      0.284870000000     0.243830000000     0.649765000000     0          
H        H      0.881130000000     0.408570000000     0.807085000000     0          
H        H      0.866230000000     0.457770000000     0.797235000000     0          
H        H      0.920330000000     0.514570000000     0.870935000000     0          
H        H      0.938430000000     0.467970000000     0.881835000000     0          
H        H      0.893830000000     0.536470000000     0.808635000000     0          
H        H      0.851830000000     0.508870000000     0.822185000000     0          
H        H      0.873930000000     0.552170000000     0.891385000000     0          
H        H      0.848130000000     0.511070000000     0.876185000000     0          
H        H      0.801430000000     0.528970000000     0.908735000000     0          
H        H      0.749630000000     0.540170000000     0.901235000000     0          
H        H      0.790130000000     0.584870000000     0.820885000000     0          
H        H      0.841230000000     0.571570000000     0.827935000000     0          
H        H      0.910030000000     0.610370000000     0.885785000000     0          
H        H      0.017530000000     0.684370000000     0.852085000000     0          
H        H      0.951530000000     0.577170000000     0.816435000000     0          
H        H      0.258100000000     0.805900000000     0.973750000000     0          
H        H      0.208900000000     0.741800000000     0.963900000000     0          
H        H      0.152100000000     0.739100000000     0.537600000000     0          
H        H      0.198700000000     0.803800000000     0.548500000000     0          
H        H      0.130200000000     0.690700000000     0.975300000000     0          
H        H      0.157800000000     0.676300000000     0.988850000000     0          
H        H      0.114500000000     0.655100000000     0.558050000000     0          
H        H      0.155600000000     0.670400000000     0.542850000000     0          
H        H      0.137700000000     0.605800000000     0.575400000000     0          
H        H      0.126500000000     0.542800000000     0.567900000000     0          
H        H      0.081800000000     0.538600000000     0.987550000000     0          
H        H      0.095100000000     0.603000000000     0.994600000000     0          
H        H      0.056300000000     0.633000000000     0.552450000000     0          
H        H      0.982300000000     0.666500000000     0.518750000000     0          
H        H      0.089500000000     0.707700000000     0.983100000000     0          
H        H      0.924770000000     0.139230000000     0.640415000000     0          
H        H      0.875570000000     0.075130000000     0.630565000000     0          
H        H      0.818770000000     0.072430000000     0.704265000000     0          
H        H      0.865370000000     0.137130000000     0.715165000000     0          
H        H      0.796870000000     0.024030000000     0.641965000000     0          
H        H      0.824470000000     0.009630000000     0.655515000000     0          
H        H      0.781170000000     0.988430000000     0.724715000000     0          
H        H      0.822270000000     0.003730000000     0.709515000000     0          
H        H      0.804370000000     0.939130000000     0.742065000000     0          
H        H      0.793170000000     0.876130000000     0.734565000000     0          
H        H      0.748470000000     0.871930000000     0.654215000000     0          
H        H      0.761770000000     0.936330000000     0.661265000000     0          
H        H      0.722970000000     0.966330000000     0.719115000000     0          
H        H      0.648970000000     0.999830000000     0.685415000000     0          
H        H      0.756170000000     0.041030000000     0.649765000000     0          
H        H      0.591430000000     0.472570000000     0.807085000000     0          
H        H      0.542230000000     0.408470000000     0.797235000000     0          
H        H      0.485430000000     0.405770000000     0.870935000000     0          
H        H      0.532030000000     0.470470000000     0.881835000000     0          
H        H      0.463530000000     0.357370000000     0.808635000000     0          
H        H      0.491130000000     0.342970000000     0.822185000000     0          
H        H      0.447830000000     0.321770000000     0.891385000000     0          
H        H      0.488930000000     0.337070000000     0.876185000000     0          
H        H      0.471030000000     0.272470000000     0.908735000000     0          
H        H      0.459830000000     0.209470000000     0.901235000000     0          
H        H      0.415130000000     0.205270000000     0.820885000000     0          
H        H      0.428430000000     0.269670000000     0.827935000000     0          
H        H      0.389630000000     0.299670000000     0.885785000000     0          
H        H      0.315630000000     0.333170000000     0.852085000000     0          
H        H      0.422830000000     0.374370000000     0.816435000000     0          
H        H      0.194100000000     0.452200000000     0.973750000000     0          
H        H      0.258200000000     0.467100000000     0.963900000000     0          
H        H      0.260900000000     0.413000000000     0.537600000000     0          
H        H      0.196200000000     0.394900000000     0.548500000000     0          
H        H      0.309300000000     0.439500000000     0.975300000000     0          
H        H      0.323700000000     0.481500000000     0.988850000000     0          
H        H      0.344900000000     0.459400000000     0.558050000000     0          
H        H      0.329600000000     0.485200000000     0.542850000000     0          
H        H      0.394200000000     0.531900000000     0.575400000000     0          
H        H      0.457200000000     0.583700000000     0.567900000000     0          
H        H      0.461400000000     0.543200000000     0.987550000000     0          
H        H      0.397000000000     0.492100000000     0.994600000000     0          
H        H      0.367000000000     0.423300000000     0.552450000000     0          
H        H      0.333500000000     0.315800000000     0.518750000000     0          
H        H      0.292300000000     0.381800000000     0.983100000000     0          
H        H      0.860770000000     0.785530000000     0.640415000000     0          
H        H      0.924870000000     0.800430000000     0.630565000000     0          
H        H      0.927570000000     0.746330000000     0.704265000000     0          
H        H      0.862870000000     0.728230000000     0.715165000000     0          
H        H      0.975970000000     0.772830000000     0.641965000000     0          
H        H      0.990370000000     0.814830000000     0.655515000000     0          
H        H      0.011570000000     0.792730000000     0.724715000000     0          
H        H      0.996270000000     0.818530000000     0.709515000000     0          
H        H      0.060870000000     0.865230000000     0.742065000000     0          
H        H      0.123870000000     0.917030000000     0.734565000000     0          
H        H      0.128070000000     0.876530000000     0.654215000000     0          
H        H      0.063670000000     0.825430000000     0.661265000000     0          
H        H      0.033670000000     0.756630000000     0.719115000000     0          
H        H      0.000170000000     0.649130000000     0.685415000000     0          
H        H      0.958970000000     0.715130000000     0.649765000000     0          
H        H      0.527430000000     0.118870000000     0.807085000000     0          
H        H      0.591530000000     0.133770000000     0.797235000000     0          
H        H      0.594230000000     0.079670000000     0.870935000000     0          
H        H      0.529530000000     0.061570000000     0.881835000000     0          
H        H      0.642630000000     0.106170000000     0.808635000000     0          
H        H      0.657030000000     0.148170000000     0.822185000000     0          
H        H      0.678230000000     0.126070000000     0.891385000000     0          
H        H      0.662930000000     0.151870000000     0.876185000000     0          
H        H      0.727530000000     0.198570000000     0.908735000000     0          
H        H      0.790530000000     0.250370000000     0.901235000000     0          
H        H      0.794730000000     0.209870000000     0.820885000000     0          
H        H      0.730330000000     0.158770000000     0.827935000000     0          
H        H      0.700330000000     0.089970000000     0.885785000000     0          
H        H      0.666830000000     0.982470000000     0.852085000000     0          
H        H      0.625630000000     0.048470000000     0.816435000000     0          
H        H      0.258100000000     0.452200000000     0.723750000000     0          
H        H      0.208900000000     0.467100000000     0.713900000000     0          
H        H      0.152100000000     0.413000000000     0.787600000000     0          
H        H      0.198700000000     0.394900000000     0.798500000000     0          
H        H      0.130200000000     0.439500000000     0.725300000000     0          
H        H      0.157800000000     0.481500000000     0.738850000000     0          
H        H      0.114500000000     0.459400000000     0.808050000000     0          
H        H      0.155600000000     0.485200000000     0.792850000000     0          
H        H      0.137700000000     0.531900000000     0.825400000000     0          
H        H      0.126500000000     0.583700000000     0.817900000000     0          
H        H      0.081800000000     0.543200000000     0.737550000000     0          
H        H      0.095100000000     0.492100000000     0.744600000000     0          
H        H      0.056300000000     0.423300000000     0.802450000000     0          
H        H      0.982300000000     0.315800000000     0.768750000000     0          
H        H      0.089500000000     0.381800000000     0.733100000000     0          
H        H      0.924770000000     0.785530000000     0.890415000000     0          
H        H      0.875570000000     0.800430000000     0.880565000000     0          
H        H      0.818770000000     0.746330000000     0.954265000000     0          
H        H      0.865370000000     0.728230000000     0.965165000000     0          
H        H      0.796870000000     0.772830000000     0.891965000000     0          
H        H      0.824470000000     0.814830000000     0.905515000000     0          
H        H      0.781170000000     0.792730000000     0.974715000000     0          
H        H      0.822270000000     0.818530000000     0.959515000000     0          
H        H      0.804370000000     0.865230000000     0.992065000000     0          
H        H      0.793170000000     0.917030000000     0.984565000000     0          
H        H      0.748470000000     0.876530000000     0.904215000000     0          
H        H      0.761770000000     0.825430000000     0.911265000000     0          
H        H      0.722970000000     0.756630000000     0.969115000000     0          
H        H      0.648970000000     0.649130000000     0.935415000000     0          
H        H      0.756170000000     0.715130000000     0.899765000000     0          
H        H      0.591430000000     0.118870000000     0.557085000000     0          
H        H      0.542230000000     0.133770000000     0.547235000000     0          
H        H      0.485430000000     0.079670000000     0.620935000000     0          
H        H      0.532030000000     0.061570000000     0.631835000000     0          
H        H      0.463530000000     0.106170000000     0.558635000000     0          
H        H      0.491130000000     0.148170000000     0.572185000000     0          
H        H      0.447830000000     0.126070000000     0.641385000000     0          
H        H      0.488930000000     0.151870000000     0.626185000000     0          
H        H      0.471030000000     0.198570000000     0.658735000000     0          
H        H      0.459830000000     0.250370000000     0.651235000000     0          
H        H      0.415130000000     0.209870000000     0.570885000000     0          
H        H      0.428430000000     0.158770000000     0.577935000000     0          
H        H      0.389630000000     0.089970000000     0.635785000000     0          
H        H      0.315630000000     0.982470000000     0.602085000000     0          
H        H      0.422830000000     0.048470000000     0.566435000000     0          
H        H      0.194100000000     0.741900000000     0.723750000000     0          
H        H      0.258200000000     0.791100000000     0.713900000000     0          
H        H      0.260900000000     0.847900000000     0.787600000000     0          
H        H      0.196200000000     0.801300000000     0.798500000000     0          
H        H      0.309300000000     0.869800000000     0.725300000000     0          
H        H      0.323700000000     0.842200000000     0.738850000000     0          
H        H      0.344900000000     0.885500000000     0.808050000000     0          
H        H      0.329600000000     0.844400000000     0.792850000000     0          
H        H      0.394200000000     0.862300000000     0.825400000000     0          
H        H      0.457200000000     0.873500000000     0.817900000000     0          
H        H      0.461400000000     0.918200000000     0.737550000000     0          
H        H      0.397000000000     0.904900000000     0.744600000000     0          
H        H      0.367000000000     0.943700000000     0.802450000000     0          
H        H      0.333500000000     0.017700000000     0.768750000000     0          
H        H      0.292300000000     0.910500000000     0.733100000000     0          
H        H      0.860770000000     0.075230000000     0.890415000000     0          
H        H      0.924870000000     0.124430000000     0.880565000000     0          
H        H      0.927570000000     0.181230000000     0.954265000000     0          
H        H      0.862870000000     0.134630000000     0.965165000000     0          
H        H      0.975970000000     0.203130000000     0.891965000000     0          
H        H      0.990370000000     0.175530000000     0.905515000000     0          
H        H      0.011570000000     0.218830000000     0.974715000000     0          
H        H      0.996270000000     0.177730000000     0.959515000000     0          
H        H      0.060870000000     0.195630000000     0.992065000000     0          
H        H      0.123870000000     0.206830000000     0.984565000000     0          
H        H      0.128070000000     0.251530000000     0.904215000000     0          
H        H      0.063670000000     0.238230000000     0.911265000000     0          
H        H      0.033670000000     0.277030000000     0.969115000000     0          
H        H      0.000170000000     0.351030000000     0.935415000000     0          
H        H      0.958970000000     0.243830000000     0.899765000000     0          
H        H      0.527430000000     0.408570000000     0.557085000000     0          
H        H      0.591530000000     0.457770000000     0.547235000000     0          
H        H      0.594230000000     0.514570000000     0.620935000000     0          
H        H      0.529530000000     0.467970000000     0.631835000000     0          
H        H      0.642630000000     0.536470000000     0.558635000000     0          
H        H      0.657030000000     0.508870000000     0.572185000000     0          
H        H      0.678230000000     0.552170000000     0.641385000000     0          
H        H      0.662930000000     0.511070000000     0.626185000000     0          
H        H      0.727530000000     0.528970000000     0.658735000000     0          
H        H      0.790530000000     0.540170000000     0.651235000000     0          
H        H      0.794730000000     0.584870000000     0.570885000000     0          
H        H      0.730330000000     0.571570000000     0.577935000000     0          
H        H      0.700330000000     0.610370000000     0.635785000000     0          
H        H      0.666830000000     0.684370000000     0.602085000000     0          
H        H      0.625630000000     0.577170000000     0.566435000000     0          
H        H      0.547800000000     0.805900000000     0.723750000000     0          
H        H      0.532900000000     0.741800000000     0.713900000000     0          
H        H      0.587000000000     0.739100000000     0.787600000000     0          
H        H      0.605100000000     0.803800000000     0.798500000000     0          
H        H      0.560500000000     0.690700000000     0.725300000000     0          
H        H      0.518500000000     0.676300000000     0.738850000000     0          
H        H      0.540600000000     0.655100000000     0.808050000000     0          
H        H      0.514800000000     0.670400000000     0.792850000000     0          
H        H      0.468100000000     0.605800000000     0.825400000000     0          
H        H      0.416300000000     0.542800000000     0.817900000000     0          
H        H      0.456800000000     0.538600000000     0.737550000000     0          
H        H      0.507900000000     0.603000000000     0.744600000000     0          
H        H      0.576700000000     0.633000000000     0.802450000000     0          
H        H      0.684200000000     0.666500000000     0.768750000000     0          
H        H      0.618200000000     0.707700000000     0.733100000000     0          
H        H      0.214470000000     0.139230000000     0.890415000000     0          
H        H      0.199570000000     0.075130000000     0.880565000000     0          
H        H      0.253670000000     0.072430000000     0.954265000000     0          
H        H      0.271770000000     0.137130000000     0.965165000000     0          
H        H      0.227170000000     0.024030000000     0.891965000000     0          
H        H      0.185170000000     0.009630000000     0.905515000000     0          
H        H      0.207270000000     0.988430000000     0.974715000000     0          
H        H      0.181470000000     0.003730000000     0.959515000000     0          
H        H      0.134770000000     0.939130000000     0.992065000000     0          
H        H      0.082970000000     0.876130000000     0.984565000000     0          
H        H      0.123470000000     0.871930000000     0.904215000000     0          
H        H      0.174570000000     0.936330000000     0.911265000000     0          
H        H      0.243370000000     0.966330000000     0.969115000000     0          
H        H      0.350870000000     0.999830000000     0.935415000000     0          
H        H      0.284870000000     0.041030000000     0.899765000000     0          
H        H      0.881130000000     0.472570000000     0.557085000000     0          
H        H      0.866230000000     0.408470000000     0.547235000000     0          
H        H      0.920330000000     0.405770000000     0.620935000000     0          
H        H      0.938430000000     0.470470000000     0.631835000000     0          
H        H      0.893830000000     0.357370000000     0.558635000000     0          
H        H      0.851830000000     0.342970000000     0.572185000000     0          
H        H      0.873930000000     0.321770000000     0.641385000000     0          
H        H      0.848130000000     0.337070000000     0.626185000000     0          
H        H      0.801430000000     0.272470000000     0.658735000000     0          
H        H      0.749630000000     0.209470000000     0.651235000000     0          
H        H      0.790130000000     0.205270000000     0.570885000000     0          
H        H      0.841230000000     0.269670000000     0.577935000000     0          
H        H      0.910030000000     0.299670000000     0.635785000000     0          
H        H      0.017530000000     0.333170000000     0.602085000000     0          
H        H      0.951530000000     0.374370000000     0.566435000000     0          
Mn       Mn     0.663920000000     0.738240000000     0.046180000000     0          
Mn       Mn     0.580010000000     0.655630000000     0.016890000000     0          
Mn       Mn     0.330590000000     0.071570000000     0.212845000000     0          
Mn       Mn     0.246670000000     0.988970000000     0.183560000000     0          
Mn       Mn     0.997250000000     0.404900000000     0.379515000000     0          
Mn       Mn     0.913340000000     0.322300000000     0.350225000000     0          
Mn       Mn     0.261760000000     0.925680000000     0.046180000000     0          
Mn       Mn     0.344370000000     0.924370000000     0.016890000000     0          
Mn       Mn     0.928430000000     0.259010000000     0.212845000000     0          
Mn       Mn     0.011030000000     0.257710000000     0.183560000000     0          
Mn       Mn     0.595100000000     0.592350000000     0.379515000000     0          
Mn       Mn     0.677700000000     0.591040000000     0.350225000000     0          
Mn       Mn     0.074320000000     0.336080000000     0.046180000000     0          
Mn       Mn     0.075630000000     0.419990000000     0.016890000000     0          
Mn       Mn     0.740990000000     0.669410000000     0.212845000000     0          
Mn       Mn     0.742290000000     0.753330000000     0.183560000000     0          
Mn       Mn     0.407650000000     0.002750000000     0.379515000000     0          
Mn       Mn     0.408960000000     0.086660000000     0.350225000000     0          
Mn       Mn     0.261760000000     0.336080000000     0.296180000000     0          
Mn       Mn     0.344370000000     0.419990000000     0.266890000000     0          
Mn       Mn     0.928430000000     0.669410000000     0.462845000000     0          
Mn       Mn     0.011030000000     0.753330000000     0.433560000000     0          
Mn       Mn     0.595100000000     0.002750000000     0.129515000000     0          
Mn       Mn     0.677700000000     0.086660000000     0.100225000000     0          
Mn       Mn     0.074320000000     0.738240000000     0.296180000000     0          
Mn       Mn     0.075630000000     0.655630000000     0.266890000000     0          
Mn       Mn     0.740990000000     0.071570000000     0.462845000000     0          
Mn       Mn     0.742290000000     0.988970000000     0.433560000000     0          
Mn       Mn     0.407650000000     0.404900000000     0.129515000000     0          
Mn       Mn     0.408960000000     0.322300000000     0.100225000000     0          
Mn       Mn     0.663920000000     0.925680000000     0.296180000000     0          
Mn       Mn     0.580010000000     0.924370000000     0.266890000000     0          
Mn       Mn     0.330590000000     0.259010000000     0.462845000000     0          
Mn       Mn     0.246670000000     0.257710000000     0.433560000000     0          
Mn       Mn     0.997250000000     0.592350000000     0.129515000000     0          
Mn       Mn     0.913340000000     0.591040000000     0.100225000000     0          
Mn       Mn     0.663920000000     0.738240000000     0.546180000000     0          
Mn       Mn     0.580010000000     0.655630000000     0.516890000000     0          
Mn       Mn     0.330590000000     0.071570000000     0.712845000000     0          
Mn       Mn     0.246670000000     0.988970000000     0.683560000000     0          
Mn       Mn     0.997250000000     0.404900000000     0.879515000000     0          
Mn       Mn     0.913340000000     0.322300000000     0.850225000000     0          
Mn       Mn     0.261760000000     0.925680000000     0.546180000000     0          
Mn       Mn     0.344370000000     0.924370000000     0.516890000000     0          
Mn       Mn     0.928430000000     0.259010000000     0.712845000000     0          
Mn       Mn     0.011030000000     0.257710000000     0.683560000000     0          
Mn       Mn     0.595100000000     0.592350000000     0.879515000000     0          
Mn       Mn     0.677700000000     0.591040000000     0.850225000000     0          
Mn       Mn     0.074320000000     0.336080000000     0.546180000000     0          
Mn       Mn     0.075630000000     0.419990000000     0.516890000000     0          
Mn       Mn     0.740990000000     0.669410000000     0.712845000000     0          
Mn       Mn     0.742290000000     0.753330000000     0.683560000000     0          
Mn       Mn     0.407650000000     0.002750000000     0.879515000000     0          
Mn       Mn     0.408960000000     0.086660000000     0.850225000000     0          
Mn       Mn     0.261760000000     0.336080000000     0.796180000000     0          
Mn       Mn     0.344370000000     0.419990000000     0.766890000000     0          
Mn       Mn     0.928430000000     0.669410000000     0.962845000000     0          
Mn       Mn     0.011030000000     0.753330000000     0.933560000000     0          
Mn       Mn     0.595100000000     0.002750000000     0.629515000000     0          
Mn       Mn     0.677700000000     0.086660000000     0.600225000000     0          
Mn       Mn     0.074320000000     0.738240000000     0.796180000000     0          
Mn       Mn     0.075630000000     0.655630000000     0.766890000000     0          
Mn       Mn     0.740990000000     0.071570000000     0.962845000000     0          
Mn       Mn     0.742290000000     0.988970000000     0.933560000000     0          
Mn       Mn     0.407650000000     0.404900000000     0.629515000000     0          
Mn       Mn     0.408960000000     0.322300000000     0.600225000000     0          
Mn       Mn     0.663920000000     0.925680000000     0.796180000000     0          
Mn       Mn     0.580010000000     0.924370000000     0.766890000000     0          
Mn       Mn     0.330590000000     0.259010000000     0.962845000000     0          
Mn       Mn     0.246670000000     0.257710000000     0.933560000000     0          
Mn       Mn     0.997250000000     0.592350000000     0.629515000000     0          
Mn       Mn     0.913340000000     0.591040000000     0.600225000000     0          
C        C      0.588460000000     0.735160000000     0.021335000000     0          
C        C      0.577540000000     0.766140000000     0.013165000000     0          
C        C      0.555820000000     0.763160000000     0.486820000000     0          
C        C      0.547000000000     0.792710000000     0.481170000000     0          
C        C      0.558180000000     0.824280000000     0.499925000000     0          
C        C      0.579270000000     0.826580000000     0.024685000000     0          
C        C      0.589840000000     0.798370000000     0.031595000000     0          
C        C      0.546600000000     0.855630000000     0.493245000000     0          
C        C      0.526540000000     0.872680000000     0.039815000000     0          
C        C      0.493900000000     0.881520000000     0.035955000000     0          
C        C      0.466250000000     0.873140000000     0.057320000000     0          
C        C      0.435180000000     0.880410000000     0.052890000000     0          
C        C      0.431570000000     0.896750000000     0.028055000000     0          
C        C      0.458820000000     0.906630000000     0.005250000000     0          
C        C      0.489380000000     0.898570000000     0.009835000000     0          
C        C      0.590750000000     0.920760000000     0.017185000000     0          
C        C      0.596720000000     0.949090000000     0.038665000000     0          
C        C      0.631220000000     0.984730000000     0.040050000000     0          
C        C      0.660930000000     0.993280000000     0.018680000000     0          
C        C      0.655110000000     0.965200000000     0.497775000000     0          
C        C      0.621030000000     0.929330000000     0.497150000000     0          
C        C      0.397600000000     0.905370000000     0.024255000000     0          
C        C      0.686690000000     0.973740000000     0.474605000000     0          
C        C      0.636920000000     0.013810000000     0.064725000000     0          
C        C      0.255130000000     0.068490000000     0.188000000000     0          
C        C      0.244210000000     0.099470000000     0.179830000000     0          
C        C      0.222490000000     0.096490000000     0.153485000000     0          
C        C      0.213670000000     0.126040000000     0.147835000000     0          
C        C      0.224850000000     0.157610000000     0.166590000000     0          
C        C      0.245940000000     0.159910000000     0.191350000000     0          
C        C      0.256510000000     0.131700000000     0.198260000000     0          
C        C      0.213270000000     0.188960000000     0.159910000000     0          
C        C      0.193210000000     0.206010000000     0.206480000000     0          
C        C      0.160570000000     0.214850000000     0.202620000000     0          
C        C      0.132920000000     0.206470000000     0.223985000000     0          
C        C      0.101850000000     0.213740000000     0.219555000000     0          
C        C      0.098240000000     0.230080000000     0.194720000000     0          
C        C      0.125490000000     0.239960000000     0.171915000000     0          
C        C      0.156050000000     0.231900000000     0.176500000000     0          
C        C      0.257420000000     0.254090000000     0.183850000000     0          
C        C      0.263390000000     0.282420000000     0.205330000000     0          
C        C      0.297890000000     0.318060000000     0.206715000000     0          
C        C      0.327600000000     0.326610000000     0.185345000000     0          
C        C      0.321780000000     0.298530000000     0.164440000000     0          
C        C      0.287700000000     0.262660000000     0.163815000000     0          
C        C      0.064270000000     0.238700000000     0.190920000000     0          
C        C      0.353360000000     0.307070000000     0.141270000000     0          
C        C      0.303590000000     0.347140000000     0.231390000000     0          
C        C      0.921790000000     0.401830000000     0.354670000000     0          
C        C      0.910870000000     0.432810000000     0.346500000000     0          
C        C      0.889150000000     0.429830000000     0.320155000000     0          
C        C      0.880330000000     0.459380000000     0.314505000000     0          
C        C      0.891510000000     0.490950000000     0.333260000000     0          
C        C      0.912600000000     0.493250000000     0.358020000000     0          
C        C      0.923170000000     0.465040000000     0.364930000000     0          
C        C      0.879930000000     0.522300000000     0.326580000000     0          
C        C      0.859870000000     0.539350000000     0.373150000000     0          
C        C      0.827230000000     0.548190000000     0.369290000000     0          
C        C      0.799580000000     0.539810000000     0.390655000000     0          
C        C      0.768510000000     0.547080000000     0.386225000000     0          
C        C      0.764900000000     0.563420000000     0.361390000000     0          
C        C      0.792150000000     0.573300000000     0.338585000000     0          
C        C      0.822710000000     0.565240000000     0.343170000000     0          
C        C      0.924080000000     0.587430000000     0.350520000000     0          
C        C      0.930050000000     0.615760000000     0.372000000000     0          
C        C      0.964550000000     0.651400000000     0.373385000000     0          
C        C      0.994260000000     0.659950000000     0.352015000000     0          
C        C      0.988440000000     0.631870000000     0.331110000000     0          
C        C      0.954360000000     0.596000000000     0.330485000000     0          
C        C      0.730930000000     0.572040000000     0.357590000000     0          
C        C      0.020020000000     0.640410000000     0.307940000000     0          
C        C      0.970250000000     0.680480000000     0.398060000000     0          
C        C      0.264840000000     0.853300000000     0.021335000000     0          
C        C      0.233860000000     0.811400000000     0.013165000000     0          
C        C      0.236840000000     0.792660000000     0.486820000000     0          
C        C      0.207290000000     0.754290000000     0.481170000000     0          
C        C      0.175720000000     0.733900000000     0.499925000000     0          
C        C      0.173420000000     0.752690000000     0.024685000000     0          
C        C      0.201630000000     0.791470000000     0.031595000000     0          
C        C      0.144370000000     0.690970000000     0.493245000000     0          
C        C      0.127320000000     0.653860000000     0.039815000000     0          
C        C      0.118480000000     0.612380000000     0.035955000000     0          
C        C      0.126860000000     0.593110000000     0.057320000000     0          
C        C      0.119590000000     0.554770000000     0.052890000000     0          
C        C      0.103250000000     0.534820000000     0.028055000000     0          
C        C      0.093370000000     0.552190000000     0.005250000000     0          
C        C      0.101430000000     0.590810000000     0.009835000000     0          
C        C      0.079240000000     0.669990000000     0.017185000000     0          
C        C      0.050910000000     0.647630000000     0.038665000000     0          
C        C      0.015270000000     0.646490000000     0.040050000000     0          
C        C      0.006720000000     0.667650000000     0.018680000000     0          
C        C      0.034800000000     0.689910000000     0.497775000000     0          
C        C      0.070670000000     0.691700000000     0.497150000000     0          
C        C      0.094630000000     0.492230000000     0.024255000000     0          
C        C      0.026260000000     0.712950000000     0.474605000000     0          
C        C      0.986190000000     0.623110000000     0.064725000000     0          
C        C      0.931510000000     0.186630000000     0.188000000000     0          
C        C      0.900530000000     0.144730000000     0.179830000000     0          
C        C      0.903510000000     0.125990000000     0.153485000000     0          
C        C      0.873960000000     0.087620000000     0.147835000000     0          
C        C      0.842390000000     0.067230000000     0.166590000000     0          
C        C      0.840090000000     0.086020000000     0.191350000000     0          
C        C      0.868300000000     0.124800000000     0.198260000000     0          
C        C      0.811040000000     0.024300000000     0.159910000000     0          
C        C      0.793990000000     0.987190000000     0.206480000000     0          
C        C      0.785150000000     0.945710000000     0.202620000000     0          
C        C      0.793530000000     0.926440000000     0.223985000000     0          
C        C      0.786260000000     0.888100000000     0.219555000000     0          
C        C      0.769920000000     0.868150000000     0.194720000000     0          
C        C      0.760040000000     0.885520000000     0.171915000000     0          
C        C      0.768100000000     0.924140000000     0.176500000000     0          
C        C      0.745910000000     0.003320000000     0.183850000000     0          
C        C      0.717580000000     0.980960000000     0.205330000000     0          
C        C      0.681940000000     0.979820000000     0.206715000000     0          
C        C      0.673390000000     0.000980000000     0.185345000000     0          
C        C      0.701470000000     0.023240000000     0.164440000000     0          
C        C      0.737340000000     0.025030000000     0.163815000000     0          
C        C      0.761300000000     0.825560000000     0.190920000000     0          
C        C      0.692930000000     0.046280000000     0.141270000000     0          
C        C      0.652860000000     0.956440000000     0.231390000000     0          
C        C      0.598170000000     0.519970000000     0.354670000000     0          
C        C      0.567190000000     0.478070000000     0.346500000000     0          
C        C      0.570170000000     0.459330000000     0.320155000000     0          
C        C      0.540620000000     0.420960000000     0.314505000000     0          
C        C      0.509050000000     0.400570000000     0.333260000000     0          
C        C      0.506750000000     0.419360000000     0.358020000000     0          
C        C      0.534960000000     0.458140000000     0.364930000000     0          
C        C      0.477700000000     0.357640000000     0.326580000000     0          
C        C      0.460650000000     0.320530000000     0.373150000000     0          
C        C      0.451810000000     0.279050000000     0.369290000000     0          
C        C      0.460190000000     0.259780000000     0.390655000000     0          
C        C      0.452920000000     0.221440000000     0.386225000000     0          
C        C      0.436580000000     0.201490000000     0.361390000000     0          
C        C      0.426700000000     0.218860000000     0.338585000000     0          
C        C      0.434760000000     0.257480000000     0.343170000000     0          
C        C      0.412570000000     0.336660000000     0.350520000000     0          
C        C      0.384240000000     0.314300000000     0.372000000000     0          
C        C      0.348600000000     0.313160000000     0.373385000000     0          
C        C      0.340050000000     0.334320000000     0.352015000000     0          
C        C      0.368130000000     0.356580000000     0.331110000000     0          
C        C      0.404000000000     0.358370000000     0.330485000000     0          
C        C      0.427960000000     0.158900000000     0.357590000000     0          
C        C      0.359590000000     0.379620000000     0.307940000000     0          
C        C      0.319520000000     0.289780000000     0.398060000000     0          
C        C      0.146700000000     0.411540000000     0.021335000000     0          
C        C      0.188600000000     0.422460000000     0.013165000000     0          
C        C      0.207340000000     0.444180000000     0.486820000000     0          
C        C      0.245710000000     0.453000000000     0.481170000000     0          
C        C      0.266100000000     0.441820000000     0.499925000000     0          
C        C      0.247310000000     0.420730000000     0.024685000000     0          
C        C      0.208530000000     0.410160000000     0.031595000000     0          
C        C      0.309030000000     0.453400000000     0.493245000000     0          
C        C      0.346140000000     0.473460000000     0.039815000000     0          
C        C      0.387620000000     0.506100000000     0.035955000000     0          
C        C      0.406890000000     0.533750000000     0.057320000000     0          
C        C      0.445230000000     0.564820000000     0.052890000000     0          
C        C      0.465180000000     0.568430000000     0.028055000000     0          
C        C      0.447810000000     0.541180000000     0.005250000000     0          
C        C      0.409190000000     0.510620000000     0.009835000000     0          
C        C      0.330010000000     0.409250000000     0.017185000000     0          
C        C      0.352370000000     0.403280000000     0.038665000000     0          
C        C      0.353510000000     0.368780000000     0.040050000000     0          
C        C      0.332350000000     0.339070000000     0.018680000000     0          
C        C      0.310090000000     0.344890000000     0.497775000000     0          
C        C      0.308300000000     0.378970000000     0.497150000000     0          
C        C      0.507770000000     0.602400000000     0.024255000000     0          
C        C      0.287050000000     0.313310000000     0.474605000000     0          
C        C      0.376890000000     0.363080000000     0.064725000000     0          
C        C      0.813370000000     0.744870000000     0.188000000000     0          
C        C      0.855270000000     0.755790000000     0.179830000000     0          
C        C      0.874010000000     0.777510000000     0.153485000000     0          
C        C      0.912380000000     0.786330000000     0.147835000000     0          
C        C      0.932770000000     0.775150000000     0.166590000000     0          
C        C      0.913980000000     0.754060000000     0.191350000000     0          
C        C      0.875200000000     0.743490000000     0.198260000000     0          
C        C      0.975700000000     0.786730000000     0.159910000000     0          
C        C      0.012810000000     0.806790000000     0.206480000000     0          
C        C      0.054290000000     0.839430000000     0.202620000000     0          
C        C      0.073560000000     0.867080000000     0.223985000000     0          
C        C      0.111900000000     0.898150000000     0.219555000000     0          
C        C      0.131850000000     0.901760000000     0.194720000000     0          
C        C      0.114480000000     0.874510000000     0.171915000000     0          
C        C      0.075860000000     0.843950000000     0.176500000000     0          
C        C      0.996680000000     0.742580000000     0.183850000000     0          
C        C      0.019040000000     0.736610000000     0.205330000000     0          
C        C      0.020180000000     0.702110000000     0.206715000000     0          
C        C      0.999020000000     0.672400000000     0.185345000000     0          
C        C      0.976760000000     0.678220000000     0.164440000000     0          
C        C      0.974970000000     0.712300000000     0.163815000000     0          
C        C      0.174440000000     0.935730000000     0.190920000000     0          
C        C      0.953720000000     0.646640000000     0.141270000000     0          
C        C      0.043560000000     0.696410000000     0.231390000000     0          
C        C      0.480030000000     0.078210000000     0.354670000000     0          
C        C      0.521930000000     0.089130000000     0.346500000000     0          
C        C      0.540670000000     0.110850000000     0.320155000000     0          
C        C      0.579040000000     0.119670000000     0.314505000000     0          
C        C      0.599430000000     0.108490000000     0.333260000000     0          
C        C      0.580640000000     0.087400000000     0.358020000000     0          
C        C      0.541860000000     0.076830000000     0.364930000000     0          
C        C      0.642360000000     0.120070000000     0.326580000000     0          
C        C      0.679470000000     0.140130000000     0.373150000000     0          
C        C      0.720950000000     0.172770000000     0.369290000000     0          
C        C      0.740220000000     0.200420000000     0.390655000000     0          
C        C      0.778560000000     0.231490000000     0.386225000000     0          
C        C      0.798510000000     0.235100000000     0.361390000000     0          
C        C      0.781140000000     0.207850000000     0.338585000000     0          
C        C      0.742520000000     0.177290000000     0.343170000000     0          
C        C      0.663340000000     0.075920000000     0.350520000000     0          
C        C      0.685700000000     0.069950000000     0.372000000000     0          
C        C      0.686840000000     0.035450000000     0.373385000000     0          
C        C      0.665680000000     0.005740000000     0.352015000000     0          
C        C      0.643420000000     0.011560000000     0.331110000000     0          
C        C      0.641630000000     0.045640000000     0.330485000000     0          
C        C      0.841100000000     0.269070000000     0.357590000000     0          
C        C      0.620380000000     0.979980000000     0.307940000000     0          
C        C      0.710220000000     0.029750000000     0.398060000000     0          
C        C      0.264840000000     0.411540000000     0.271335000000     0          
C        C      0.233860000000     0.422460000000     0.263165000000     0          
C        C      0.236840000000     0.444180000000     0.236820000000     0          
C        C      0.207290000000     0.453000000000     0.231170000000     0          
C        C      0.175720000000     0.441820000000     0.249925000000     0          
C        C      0.173420000000     0.420730000000     0.274685000000     0          
C        C      0.201630000000     0.410160000000     0.281595000000     0          
C        C      0.144370000000     0.453400000000     0.243245000000     0          
C        C      0.127320000000     0.473460000000     0.289815000000     0          
C        C      0.118480000000     0.506100000000     0.285955000000     0          
C        C      0.126860000000     0.533750000000     0.307320000000     0          
C        C      0.119590000000     0.564820000000     0.302890000000     0          
C        C      0.103250000000     0.568430000000     0.278055000000     0          
C        C      0.093370000000     0.541180000000     0.255250000000     0          
C        C      0.101430000000     0.510620000000     0.259835000000     0          
C        C      0.079240000000     0.409250000000     0.267185000000     0          
C        C      0.050910000000     0.403280000000     0.288665000000     0          
C        C      0.015270000000     0.368780000000     0.290050000000     0          
C        C      0.006720000000     0.339070000000     0.268680000000     0          
C        C      0.034800000000     0.344890000000     0.247775000000     0          
C        C      0.070670000000     0.378970000000     0.247150000000     0          
C        C      0.094630000000     0.602400000000     0.274255000000     0          
C        C      0.026260000000     0.313310000000     0.224605000000     0          
C        C      0.986190000000     0.363080000000     0.314725000000     0          
C        C      0.931510000000     0.744870000000     0.438000000000     0          
C        C      0.900530000000     0.755790000000     0.429830000000     0          
C        C      0.903510000000     0.777510000000     0.403485000000     0          
C        C      0.873960000000     0.786330000000     0.397835000000     0          
C        C      0.842390000000     0.775150000000     0.416590000000     0          
C        C      0.840090000000     0.754060000000     0.441350000000     0          
C        C      0.868300000000     0.743490000000     0.448260000000     0          
C        C      0.811040000000     0.786730000000     0.409910000000     0          
C        C      0.793990000000     0.806790000000     0.456480000000     0          
C        C      0.785150000000     0.839430000000     0.452620000000     0          
C        C      0.793530000000     0.867080000000     0.473985000000     0          
C        C      0.786260000000     0.898150000000     0.469555000000     0          
C        C      0.769920000000     0.901760000000     0.444720000000     0          
C        C      0.760040000000     0.874510000000     0.421915000000     0          
C        C      0.768100000000     0.843950000000     0.426500000000     0          
C        C      0.745910000000     0.742580000000     0.433850000000     0          
C        C      0.717580000000     0.736610000000     0.455330000000     0          
C        C      0.681940000000     0.702110000000     0.456715000000     0          
C        C      0.673390000000     0.672400000000     0.435345000000     0          
C        C      0.701470000000     0.678220000000     0.414440000000     0          
C        C      0.737340000000     0.712300000000     0.413815000000     0          
C        C      0.761300000000     0.935730000000     0.440920000000     0          
C        C      0.692930000000     0.646640000000     0.391270000000     0          
C        C      0.652860000000     0.696410000000     0.481390000000     0          
C        C      0.598170000000     0.078210000000     0.104670000000     0          
C        C      0.567190000000     0.089130000000     0.096500000000     0          
C        C      0.570170000000     0.110850000000     0.070155000000     0          
C        C      0.540620000000     0.119670000000     0.064505000000     0          
C        C      0.509050000000     0.108490000000     0.083260000000     0          
C        C      0.506750000000     0.087400000000     0.108020000000     0          
C        C      0.534960000000     0.076830000000     0.114930000000     0          
C        C      0.477700000000     0.120070000000     0.076580000000     0          
C        C      0.460650000000     0.140130000000     0.123150000000     0          
C        C      0.451810000000     0.172770000000     0.119290000000     0          
C        C      0.460190000000     0.200420000000     0.140655000000     0          
C        C      0.452920000000     0.231490000000     0.136225000000     0          
C        C      0.436580000000     0.235100000000     0.111390000000     0          
C        C      0.426700000000     0.207850000000     0.088585000000     0          
C        C      0.434760000000     0.177290000000     0.093170000000     0          
C        C      0.412570000000     0.075920000000     0.100520000000     0          
C        C      0.384240000000     0.069950000000     0.122000000000     0          
C        C      0.348600000000     0.035450000000     0.123385000000     0          
C        C      0.340050000000     0.005740000000     0.102015000000     0          
C        C      0.368130000000     0.011560000000     0.081110000000     0          
C        C      0.404000000000     0.045640000000     0.080485000000     0          
C        C      0.427960000000     0.269070000000     0.107590000000     0          
C        C      0.359590000000     0.979980000000     0.057940000000     0          
C        C      0.319520000000     0.029750000000     0.148060000000     0          
C        C      0.146700000000     0.735160000000     0.271335000000     0          
C        C      0.188600000000     0.766140000000     0.263165000000     0          
C        C      0.207340000000     0.763160000000     0.236820000000     0          
C        C      0.245710000000     0.792710000000     0.231170000000     0          
C        C      0.266100000000     0.824280000000     0.249925000000     0          
C        C      0.247310000000     0.826580000000     0.274685000000     0          
C        C      0.208530000000     0.798370000000     0.281595000000     0          
C        C      0.309030000000     0.855630000000     0.243245000000     0          
C        C      0.346140000000     0.872680000000     0.289815000000     0          
C        C      0.387620000000     0.881520000000     0.285955000000     0          
C        C      0.406890000000     0.873140000000     0.307320000000     0          
C        C      0.445230000000     0.880410000000     0.302890000000     0          
C        C      0.465180000000     0.896750000000     0.278055000000     0          
C        C      0.447810000000     0.906630000000     0.255250000000     0          
C        C      0.409190000000     0.898570000000     0.259835000000     0          
C        C      0.330010000000     0.920760000000     0.267185000000     0          
C        C      0.352370000000     0.949090000000     0.288665000000     0          
C        C      0.353510000000     0.984730000000     0.290050000000     0          
C        C      0.332350000000     0.993280000000     0.268680000000     0          
C        C      0.310090000000     0.965200000000     0.247775000000     0          
C        C      0.308300000000     0.929330000000     0.247150000000     0          
C        C      0.507770000000     0.905370000000     0.274255000000     0          
C        C      0.287050000000     0.973740000000     0.224605000000     0          
C        C      0.376890000000     0.013810000000     0.314725000000     0          
C        C      0.813370000000     0.068490000000     0.438000000000     0          
C        C      0.855270000000     0.099470000000     0.429830000000     0          
C        C      0.874010000000     0.096490000000     0.403485000000     0          
C        C      0.912380000000     0.126040000000     0.397835000000     0          
C        C      0.932770000000     0.157610000000     0.416590000000     0          
C        C      0.913980000000     0.159910000000     0.441350000000     0          
C        C      0.875200000000     0.131700000000     0.448260000000     0          
C        C      0.975700000000     0.188960000000     0.409910000000     0          
C        C      0.012810000000     0.206010000000     0.456480000000     0          
C        C      0.054290000000     0.214850000000     0.452620000000     0          
C        C      0.073560000000     0.206470000000     0.473985000000     0          
C        C      0.111900000000     0.213740000000     0.469555000000     0          
C        C      0.131850000000     0.230080000000     0.444720000000     0          
C        C      0.114480000000     0.239960000000     0.421915000000     0          
C        C      0.075860000000     0.231900000000     0.426500000000     0          
C        C      0.996680000000     0.254090000000     0.433850000000     0          
C        C      0.019040000000     0.282420000000     0.455330000000     0          
C        C      0.020180000000     0.318060000000     0.456715000000     0          
C        C      0.999020000000     0.326610000000     0.435345000000     0          
C        C      0.976760000000     0.298530000000     0.414440000000     0          
C        C      0.974970000000     0.262660000000     0.413815000000     0          
C        C      0.174440000000     0.238700000000     0.440920000000     0          
C        C      0.953720000000     0.307070000000     0.391270000000     0          
C        C      0.043560000000     0.347140000000     0.481390000000     0          
C        C      0.480030000000     0.401830000000     0.104670000000     0          
C        C      0.521930000000     0.432810000000     0.096500000000     0          
C        C      0.540670000000     0.429830000000     0.070155000000     0          
C        C      0.579040000000     0.459380000000     0.064505000000     0          
C        C      0.599430000000     0.490950000000     0.083260000000     0          
C        C      0.580640000000     0.493250000000     0.108020000000     0          
C        C      0.541860000000     0.465040000000     0.114930000000     0          
C        C      0.642360000000     0.522300000000     0.076580000000     0          
C        C      0.679470000000     0.539350000000     0.123150000000     0          
C        C      0.720950000000     0.548190000000     0.119290000000     0          
C        C      0.740220000000     0.539810000000     0.140655000000     0          
C        C      0.778560000000     0.547080000000     0.136225000000     0          
C        C      0.798510000000     0.563420000000     0.111390000000     0          
C        C      0.781140000000     0.573300000000     0.088585000000     0          
C        C      0.742520000000     0.565240000000     0.093170000000     0          
C        C      0.663340000000     0.587430000000     0.100520000000     0          
C        C      0.685700000000     0.615760000000     0.122000000000     0          
C        C      0.686840000000     0.651400000000     0.123385000000     0          
C        C      0.665680000000     0.659950000000     0.102015000000     0          
C        C      0.643420000000     0.631870000000     0.081110000000     0          
C        C      0.641630000000     0.596000000000     0.080485000000     0          
C        C      0.841100000000     0.572040000000     0.107590000000     0          
C        C      0.620380000000     0.640410000000     0.057940000000     0          
C        C      0.710220000000     0.680480000000     0.148060000000     0          
C        C      0.588460000000     0.853300000000     0.271335000000     0          
C        C      0.577540000000     0.811400000000     0.263165000000     0          
C        C      0.555820000000     0.792660000000     0.236820000000     0          
C        C      0.547000000000     0.754290000000     0.231170000000     0          
C        C      0.558180000000     0.733900000000     0.249925000000     0          
C        C      0.579270000000     0.752690000000     0.274685000000     0          
C        C      0.589840000000     0.791470000000     0.281595000000     0          
C        C      0.546600000000     0.690970000000     0.243245000000     0          
C        C      0.526540000000     0.653860000000     0.289815000000     0          
C        C      0.493900000000     0.612380000000     0.285955000000     0          
C        C      0.466250000000     0.593110000000     0.307320000000     0          
C        C      0.435180000000     0.554770000000     0.302890000000     0          
C        C      0.431570000000     0.534820000000     0.278055000000     0          
C        C      0.458820000000     0.552190000000     0.255250000000     0          
C        C      0.489380000000     0.590810000000     0.259835000000     0          
C        C      0.590750000000     0.669990000000     0.267185000000     0          
C        C      0.596720000000     0.647630000000     0.288665000000     0          
C        C      0.631220000000     0.646490000000     0.290050000000     0          
C        C      0.660930000000     0.667650000000     0.268680000000     0          
C        C      0.655110000000     0.689910000000     0.247775000000     0          
C        C      0.621030000000     0.691700000000     0.247150000000     0          
C        C      0.397600000000     0.492230000000     0.274255000000     0          
C        C      0.686690000000     0.712950000000     0.224605000000     0          
C        C      0.636920000000     0.623110000000     0.314725000000     0          
C        C      0.255130000000     0.186630000000     0.438000000000     0          
C        C      0.244210000000     0.144730000000     0.429830000000     0          
C        C      0.222490000000     0.125990000000     0.403485000000     0          
C        C      0.213670000000     0.087620000000     0.397835000000     0          
C        C      0.224850000000     0.067230000000     0.416590000000     0          
C        C      0.245940000000     0.086020000000     0.441350000000     0          
C        C      0.256510000000     0.124800000000     0.448260000000     0          
C        C      0.213270000000     0.024300000000     0.409910000000     0          
C        C      0.193210000000     0.987190000000     0.456480000000     0          
C        C      0.160570000000     0.945710000000     0.452620000000     0          
C        C      0.132920000000     0.926440000000     0.473985000000     0          
C        C      0.101850000000     0.888100000000     0.469555000000     0          
C        C      0.098240000000     0.868150000000     0.444720000000     0          
C        C      0.125490000000     0.885520000000     0.421915000000     0          
C        C      0.156050000000     0.924140000000     0.426500000000     0          
C        C      0.257420000000     0.003320000000     0.433850000000     0          
C        C      0.263390000000     0.980960000000     0.455330000000     0          
C        C      0.297890000000     0.979820000000     0.456715000000     0          
C        C      0.327600000000     0.000980000000     0.435345000000     0          
C        C      0.321780000000     0.023240000000     0.414440000000     0          
C        C      0.287700000000     0.025030000000     0.413815000000     0          
C        C      0.064270000000     0.825560000000     0.440920000000     0          
C        C      0.353360000000     0.046280000000     0.391270000000     0          
C        C      0.303590000000     0.956440000000     0.481390000000     0          
C        C      0.921790000000     0.519970000000     0.104670000000     0          
C        C      0.910870000000     0.478070000000     0.096500000000     0          
C        C      0.889150000000     0.459330000000     0.070155000000     0          
C        C      0.880330000000     0.420960000000     0.064505000000     0          
C        C      0.891510000000     0.400570000000     0.083260000000     0          
C        C      0.912600000000     0.419360000000     0.108020000000     0          
C        C      0.923170000000     0.458140000000     0.114930000000     0          
C        C      0.879930000000     0.357640000000     0.076580000000     0          
C        C      0.859870000000     0.320530000000     0.123150000000     0          
C        C      0.827230000000     0.279050000000     0.119290000000     0          
C        C      0.799580000000     0.259780000000     0.140655000000     0          
C        C      0.768510000000     0.221440000000     0.136225000000     0          
C        C      0.764900000000     0.201490000000     0.111390000000     0          
C        C      0.792150000000     0.218860000000     0.088585000000     0          
C        C      0.822710000000     0.257480000000     0.093170000000     0          
C        C      0.924080000000     0.336660000000     0.100520000000     0          
C        C      0.930050000000     0.314300000000     0.122000000000     0          
C        C      0.964550000000     0.313160000000     0.123385000000     0          
C        C      0.994260000000     0.334320000000     0.102015000000     0          
C        C      0.988440000000     0.356580000000     0.081110000000     0          
C        C      0.954360000000     0.358370000000     0.080485000000     0          
C        C      0.730930000000     0.158900000000     0.107590000000     0          
C        C      0.020020000000     0.379620000000     0.057940000000     0          
C        C      0.970250000000     0.289780000000     0.148060000000     0          
C        C      0.588460000000     0.735160000000     0.521335000000     0          
C        C      0.577540000000     0.766140000000     0.513165000000     0          
C        C      0.555820000000     0.763160000000     0.986820000000     0          
C        C      0.547000000000     0.792710000000     0.981170000000     0          
C        C      0.558180000000     0.824280000000     0.999925000000     0          
C        C      0.579270000000     0.826580000000     0.524685000000     0          
C        C      0.589840000000     0.798370000000     0.531595000000     0          
C        C      0.546600000000     0.855630000000     0.993245000000     0          
C        C      0.526540000000     0.872680000000     0.539815000000     0          
C        C      0.493900000000     0.881520000000     0.535955000000     0          
C        C      0.466250000000     0.873140000000     0.557320000000     0          
C        C      0.435180000000     0.880410000000     0.552890000000     0          
C        C      0.431570000000     0.896750000000     0.528055000000     0          
C        C      0.458820000000     0.906630000000     0.505250000000     0          
C        C      0.489380000000     0.898570000000     0.509835000000     0          
C        C      0.590750000000     0.920760000000     0.517185000000     0          
C        C      0.596720000000     0.949090000000     0.538665000000     0          
C        C      0.631220000000     0.984730000000     0.540050000000     0          
C        C      0.660930000000     0.993280000000     0.518680000000     0          
C        C      0.655110000000     0.965200000000     0.997775000000     0          
C        C      0.621030000000     0.929330000000     0.997150000000     0          
C        C      0.397600000000     0.905370000000     0.524255000000     0          
C        C      0.686690000000     0.973740000000     0.974605000000     0          
C        C      0.636920000000     0.013810000000     0.564725000000     0          
C        C      0.255130000000     0.068490000000     0.688000000000     0          
C        C      0.244210000000     0.099470000000     0.679830000000     0          
C        C      0.222490000000     0.096490000000     0.653485000000     0          
C        C      0.213670000000     0.126040000000     0.647835000000     0          
C        C      0.224850000000     0.157610000000     0.666590000000     0          
C        C      0.245940000000     0.159910000000     0.691350000000     0          
C        C      0.256510000000     0.131700000000     0.698260000000     0          
C        C      0.213270000000     0.188960000000     0.659910000000     0          
C        C      0.193210000000     0.206010000000     0.706480000000     0          
C        C      0.160570000000     0.214850000000     0.702620000000     0          
C        C      0.132920000000     0.206470000000     0.723985000000     0          
C        C      0.101850000000     0.213740000000     0.719555000000     0          
C        C      0.098240000000     0.230080000000     0.694720000000     0          
C        C      0.125490000000     0.239960000000     0.671915000000     0          
C        C      0.156050000000     0.231900000000     0.676500000000     0          
C        C      0.257420000000     0.254090000000     0.683850000000     0          
C        C      0.263390000000     0.282420000000     0.705330000000     0          
C        C      0.297890000000     0.318060000000     0.706715000000     0          
C        C      0.327600000000     0.326610000000     0.685345000000     0          
C        C      0.321780000000     0.298530000000     0.664440000000     0          
C        C      0.287700000000     0.262660000000     0.663815000000     0          
C        C      0.064270000000     0.238700000000     0.690920000000     0          
C        C      0.353360000000     0.307070000000     0.641270000000     0          
C        C      0.303590000000     0.347140000000     0.731390000000     0          
C        C      0.921790000000     0.401830000000     0.854670000000     0          
C        C      0.910870000000     0.432810000000     0.846500000000     0          
C        C      0.889150000000     0.429830000000     0.820155000000     0          
C        C      0.880330000000     0.459380000000     0.814505000000     0          
C        C      0.891510000000     0.490950000000     0.833260000000     0          
C        C      0.912600000000     0.493250000000     0.858020000000     0          
C        C      0.923170000000     0.465040000000     0.864930000000     0          
C        C      0.879930000000     0.522300000000     0.826580000000     0          
C        C      0.859870000000     0.539350000000     0.873150000000     0          
C        C      0.827230000000     0.548190000000     0.869290000000     0          
C        C      0.799580000000     0.539810000000     0.890655000000     0          
C        C      0.768510000000     0.547080000000     0.886225000000     0          
C        C      0.764900000000     0.563420000000     0.861390000000     0          
C        C      0.792150000000     0.573300000000     0.838585000000     0          
C        C      0.822710000000     0.565240000000     0.843170000000     0          
C        C      0.924080000000     0.587430000000     0.850520000000     0          
C        C      0.930050000000     0.615760000000     0.872000000000     0          
C        C      0.964550000000     0.651400000000     0.873385000000     0          
C        C      0.994260000000     0.659950000000     0.852015000000     0          
C        C      0.988440000000     0.631870000000     0.831110000000     0          
C        C      0.954360000000     0.596000000000     0.830485000000     0          
C        C      0.730930000000     0.572040000000     0.857590000000     0          
C        C      0.020020000000     0.640410000000     0.807940000000     0          
C        C      0.970250000000     0.680480000000     0.898060000000     0          
C        C      0.264840000000     0.853300000000     0.521335000000     0          
C        C      0.233860000000     0.811400000000     0.513165000000     0          
C        C      0.236840000000     0.792660000000     0.986820000000     0          
C        C      0.207290000000     0.754290000000     0.981170000000     0          
C        C      0.175720000000     0.733900000000     0.999925000000     0          
C        C      0.173420000000     0.752690000000     0.524685000000     0          
C        C      0.201630000000     0.791470000000     0.531595000000     0          
C        C      0.144370000000     0.690970000000     0.993245000000     0          
C        C      0.127320000000     0.653860000000     0.539815000000     0          
C        C      0.118480000000     0.612380000000     0.535955000000     0          
C        C      0.126860000000     0.593110000000     0.557320000000     0          
C        C      0.119590000000     0.554770000000     0.552890000000     0          
C        C      0.103250000000     0.534820000000     0.528055000000     0          
C        C      0.093370000000     0.552190000000     0.505250000000     0          
C        C      0.101430000000     0.590810000000     0.509835000000     0          
C        C      0.079240000000     0.669990000000     0.517185000000     0          
C        C      0.050910000000     0.647630000000     0.538665000000     0          
C        C      0.015270000000     0.646490000000     0.540050000000     0          
C        C      0.006720000000     0.667650000000     0.518680000000     0          
C        C      0.034800000000     0.689910000000     0.997775000000     0          
C        C      0.070670000000     0.691700000000     0.997150000000     0          
C        C      0.094630000000     0.492230000000     0.524255000000     0          
C        C      0.026260000000     0.712950000000     0.974605000000     0          
C        C      0.986190000000     0.623110000000     0.564725000000     0          
C        C      0.931510000000     0.186630000000     0.688000000000     0          
C        C      0.900530000000     0.144730000000     0.679830000000     0          
C        C      0.903510000000     0.125990000000     0.653485000000     0          
C        C      0.873960000000     0.087620000000     0.647835000000     0          
C        C      0.842390000000     0.067230000000     0.666590000000     0          
C        C      0.840090000000     0.086020000000     0.691350000000     0          
C        C      0.868300000000     0.124800000000     0.698260000000     0          
C        C      0.811040000000     0.024300000000     0.659910000000     0          
C        C      0.793990000000     0.987190000000     0.706480000000     0          
C        C      0.785150000000     0.945710000000     0.702620000000     0          
C        C      0.793530000000     0.926440000000     0.723985000000     0          
C        C      0.786260000000     0.888100000000     0.719555000000     0          
C        C      0.769920000000     0.868150000000     0.694720000000     0          
C        C      0.760040000000     0.885520000000     0.671915000000     0          
C        C      0.768100000000     0.924140000000     0.676500000000     0          
C        C      0.745910000000     0.003320000000     0.683850000000     0          
C        C      0.717580000000     0.980960000000     0.705330000000     0          
C        C      0.681940000000     0.979820000000     0.706715000000     0          
C        C      0.673390000000     0.000980000000     0.685345000000     0          
C        C      0.701470000000     0.023240000000     0.664440000000     0          
C        C      0.737340000000     0.025030000000     0.663815000000     0          
C        C      0.761300000000     0.825560000000     0.690920000000     0          
C        C      0.692930000000     0.046280000000     0.641270000000     0          
C        C      0.652860000000     0.956440000000     0.731390000000     0          
C        C      0.598170000000     0.519970000000     0.854670000000     0          
C        C      0.567190000000     0.478070000000     0.846500000000     0          
C        C      0.570170000000     0.459330000000     0.820155000000     0          
C        C      0.540620000000     0.420960000000     0.814505000000     0          
C        C      0.509050000000     0.400570000000     0.833260000000     0          
C        C      0.506750000000     0.419360000000     0.858020000000     0          
C        C      0.534960000000     0.458140000000     0.864930000000     0          
C        C      0.477700000000     0.357640000000     0.826580000000     0          
C        C      0.460650000000     0.320530000000     0.873150000000     0          
C        C      0.451810000000     0.279050000000     0.869290000000     0          
C        C      0.460190000000     0.259780000000     0.890655000000     0          
C        C      0.452920000000     0.221440000000     0.886225000000     0          
C        C      0.436580000000     0.201490000000     0.861390000000     0          
C        C      0.426700000000     0.218860000000     0.838585000000     0          
C        C      0.434760000000     0.257480000000     0.843170000000     0          
C        C      0.412570000000     0.336660000000     0.850520000000     0          
C        C      0.384240000000     0.314300000000     0.872000000000     0          
C        C      0.348600000000     0.313160000000     0.873385000000     0          
C        C      0.340050000000     0.334320000000     0.852015000000     0          
C        C      0.368130000000     0.356580000000     0.831110000000     0          
C        C      0.404000000000     0.358370000000     0.830485000000     0          
C        C      0.427960000000     0.158900000000     0.857590000000     0          
C        C      0.359590000000     0.379620000000     0.807940000000     0          
C        C      0.319520000000     0.289780000000     0.898060000000     0          
C        C      0.146700000000     0.411540000000     0.521335000000     0          
C        C      0.188600000000     0.422460000000     0.513165000000     0          
C        C      0.207340000000     0.444180000000     0.986820000000     0          
C        C      0.245710000000     0.453000000000     0.981170000000     0          
C        C      0.266100000000     0.441820000000     0.999925000000     0          
C        C      0.247310000000     0.420730000000     0.524685000000     0          
C        C      0.208530000000     0.410160000000     0.531595000000     0          
C        C      0.309030000000     0.453400000000     0.993245000000     0          
C        C      0.346140000000     0.473460000000     0.539815000000     0          
C        C      0.387620000000     0.506100000000     0.535955000000     0          
C        C      0.406890000000     0.533750000000     0.557320000000     0          
C        C      0.445230000000     0.564820000000     0.552890000000     0          
C        C      0.465180000000     0.568430000000     0.528055000000     0          
C        C      0.447810000000     0.541180000000     0.505250000000     0          
C        C      0.409190000000     0.510620000000     0.509835000000     0          
C        C      0.330010000000     0.409250000000     0.517185000000     0          
C        C      0.352370000000     0.403280000000     0.538665000000     0          
C        C      0.353510000000     0.368780000000     0.540050000000     0          
C        C      0.332350000000     0.339070000000     0.518680000000     0          
C        C      0.310090000000     0.344890000000     0.997775000000     0          
C        C      0.308300000000     0.378970000000     0.997150000000     0          
C        C      0.507770000000     0.602400000000     0.524255000000     0          
C        C      0.287050000000     0.313310000000     0.974605000000     0          
C        C      0.376890000000     0.363080000000     0.564725000000     0          
C        C      0.813370000000     0.744870000000     0.688000000000     0          
C        C      0.855270000000     0.755790000000     0.679830000000     0          
C        C      0.874010000000     0.777510000000     0.653485000000     0          
C        C      0.912380000000     0.786330000000     0.647835000000     0          
C        C      0.932770000000     0.775150000000     0.666590000000     0          
C        C      0.913980000000     0.754060000000     0.691350000000     0          
C        C      0.875200000000     0.743490000000     0.698260000000     0          
C        C      0.975700000000     0.786730000000     0.659910000000     0          
C        C      0.012810000000     0.806790000000     0.706480000000     0          
C        C      0.054290000000     0.839430000000     0.702620000000     0          
C        C      0.073560000000     0.867080000000     0.723985000000     0          
C        C      0.111900000000     0.898150000000     0.719555000000     0          
C        C      0.131850000000     0.901760000000     0.694720000000     0          
C        C      0.114480000000     0.874510000000     0.671915000000     0          
C        C      0.075860000000     0.843950000000     0.676500000000     0          
C        C      0.996680000000     0.742580000000     0.683850000000     0          
C        C      0.019040000000     0.736610000000     0.705330000000     0          
C        C      0.020180000000     0.702110000000     0.706715000000     0          
C        C      0.999020000000     0.672400000000     0.685345000000     0          
C        C      0.976760000000     0.678220000000     0.664440000000     0          
C        C      0.974970000000     0.712300000000     0.663815000000     0          
C        C      0.174440000000     0.935730000000     0.690920000000     0          
C        C      0.953720000000     0.646640000000     0.641270000000     0          
C        C      0.043560000000     0.696410000000     0.731390000000     0          
C        C      0.480030000000     0.078210000000     0.854670000000     0          
C        C      0.521930000000     0.089130000000     0.846500000000     0          
C        C      0.540670000000     0.110850000000     0.820155000000     0          
C        C      0.579040000000     0.119670000000     0.814505000000     0          
C        C      0.599430000000     0.108490000000     0.833260000000     0          
C        C      0.580640000000     0.087400000000     0.858020000000     0          
C        C      0.541860000000     0.076830000000     0.864930000000     0          
C        C      0.642360000000     0.120070000000     0.826580000000     0          
C        C      0.679470000000     0.140130000000     0.873150000000     0          
C        C      0.720950000000     0.172770000000     0.869290000000     0          
C        C      0.740220000000     0.200420000000     0.890655000000     0          
C        C      0.778560000000     0.231490000000     0.886225000000     0          
C        C      0.798510000000     0.235100000000     0.861390000000     0          
C        C      0.781140000000     0.207850000000     0.838585000000     0          
C        C      0.742520000000     0.177290000000     0.843170000000     0          
C        C      0.663340000000     0.075920000000     0.850520000000     0          
C        C      0.685700000000     0.069950000000     0.872000000000     0          
C        C      0.686840000000     0.035450000000     0.873385000000     0          
C        C      0.665680000000     0.005740000000     0.852015000000     0          
C        C      0.643420000000     0.011560000000     0.831110000000     0          
C        C      0.641630000000     0.045640000000     0.830485000000     0          
C        C      0.841100000000     0.269070000000     0.857590000000     0          
C        C      0.620380000000     0.979980000000     0.807940000000     0          
C        C      0.710220000000     0.029750000000     0.898060000000     0          
C        C      0.264840000000     0.411540000000     0.771335000000     0          
C        C      0.233860000000     0.422460000000     0.763165000000     0          
C        C      0.236840000000     0.444180000000     0.736820000000     0          
C        C      0.207290000000     0.453000000000     0.731170000000     0          
C        C      0.175720000000     0.441820000000     0.749925000000     0          
C        C      0.173420000000     0.420730000000     0.774685000000     0          
C        C      0.201630000000     0.410160000000     0.781595000000     0          
C        C      0.144370000000     0.453400000000     0.743245000000     0          
C        C      0.127320000000     0.473460000000     0.789815000000     0          
C        C      0.118480000000     0.506100000000     0.785955000000     0          
C        C      0.126860000000     0.533750000000     0.807320000000     0          
C        C      0.119590000000     0.564820000000     0.802890000000     0          
C        C      0.103250000000     0.568430000000     0.778055000000     0          
C        C      0.093370000000     0.541180000000     0.755250000000     0          
C        C      0.101430000000     0.510620000000     0.759835000000     0          
C        C      0.079240000000     0.409250000000     0.767185000000     0          
C        C      0.050910000000     0.403280000000     0.788665000000     0          
C        C      0.015270000000     0.368780000000     0.790050000000     0          
C        C      0.006720000000     0.339070000000     0.768680000000     0          
C        C      0.034800000000     0.344890000000     0.747775000000     0          
C        C      0.070670000000     0.378970000000     0.747150000000     0          
C        C      0.094630000000     0.602400000000     0.774255000000     0          
C        C      0.026260000000     0.313310000000     0.724605000000     0          
C        C      0.986190000000     0.363080000000     0.814725000000     0          
C        C      0.931510000000     0.744870000000     0.938000000000     0          
C        C      0.900530000000     0.755790000000     0.929830000000     0          
C        C      0.903510000000     0.777510000000     0.903485000000     0          
C        C      0.873960000000     0.786330000000     0.897835000000     0          
C        C      0.842390000000     0.775150000000     0.916590000000     0          
C        C      0.840090000000     0.754060000000     0.941350000000     0          
C        C      0.868300000000     0.743490000000     0.948260000000     0          
C        C      0.811040000000     0.786730000000     0.909910000000     0          
C        C      0.793990000000     0.806790000000     0.956480000000     0          
C        C      0.785150000000     0.839430000000     0.952620000000     0          
C        C      0.793530000000     0.867080000000     0.973985000000     0          
C        C      0.786260000000     0.898150000000     0.969555000000     0          
C        C      0.769920000000     0.901760000000     0.944720000000     0          
C        C      0.760040000000     0.874510000000     0.921915000000     0          
C        C      0.768100000000     0.843950000000     0.926500000000     0          
C        C      0.745910000000     0.742580000000     0.933850000000     0          
C        C      0.717580000000     0.736610000000     0.955330000000     0          
C        C      0.681940000000     0.702110000000     0.956715000000     0          
C        C      0.673390000000     0.672400000000     0.935345000000     0          
C        C      0.701470000000     0.678220000000     0.914440000000     0          
C        C      0.737340000000     0.712300000000     0.913815000000     0          
C        C      0.761300000000     0.935730000000     0.940920000000     0          
C        C      0.692930000000     0.646640000000     0.891270000000     0          
C        C      0.652860000000     0.696410000000     0.981390000000     0          
C        C      0.598170000000     0.078210000000     0.604670000000     0          
C        C      0.567190000000     0.089130000000     0.596500000000     0          
C        C      0.570170000000     0.110850000000     0.570155000000     0          
C        C      0.540620000000     0.119670000000     0.564505000000     0          
C        C      0.509050000000     0.108490000000     0.583260000000     0          
C        C      0.506750000000     0.087400000000     0.608020000000     0          
C        C      0.534960000000     0.076830000000     0.614930000000     0          
C        C      0.477700000000     0.120070000000     0.576580000000     0          
C        C      0.460650000000     0.140130000000     0.623150000000     0          
C        C      0.451810000000     0.172770000000     0.619290000000     0          
C        C      0.460190000000     0.200420000000     0.640655000000     0          
C        C      0.452920000000     0.231490000000     0.636225000000     0          
C        C      0.436580000000     0.235100000000     0.611390000000     0          
C        C      0.426700000000     0.207850000000     0.588585000000     0          
C        C      0.434760000000     0.177290000000     0.593170000000     0          
C        C      0.412570000000     0.075920000000     0.600520000000     0          
C        C      0.384240000000     0.069950000000     0.622000000000     0          
C        C      0.348600000000     0.035450000000     0.623385000000     0          
C        C      0.340050000000     0.005740000000     0.602015000000     0          
C        C      0.368130000000     0.011560000000     0.581110000000     0          
C        C      0.404000000000     0.045640000000     0.580485000000     0          
C        C      0.427960000000     0.269070000000     0.607590000000     0          
C        C      0.359590000000     0.979980000000     0.557940000000     0          
C        C      0.319520000000     0.029750000000     0.648060000000     0          
C        C      0.146700000000     0.735160000000     0.771335000000     0          
C        C      0.188600000000     0.766140000000     0.763165000000     0          
C        C      0.207340000000     0.763160000000     0.736820000000     0          
C        C      0.245710000000     0.792710000000     0.731170000000     0          
C        C      0.266100000000     0.824280000000     0.749925000000     0          
C        C      0.247310000000     0.826580000000     0.774685000000     0          
C        C      0.208530000000     0.798370000000     0.781595000000     0          
C        C      0.309030000000     0.855630000000     0.743245000000     0          
C        C      0.346140000000     0.872680000000     0.789815000000     0          
C        C      0.387620000000     0.881520000000     0.785955000000     0          
C        C      0.406890000000     0.873140000000     0.807320000000     0          
C        C      0.445230000000     0.880410000000     0.802890000000     0          
C        C      0.465180000000     0.896750000000     0.778055000000     0          
C        C      0.447810000000     0.906630000000     0.755250000000     0          
C        C      0.409190000000     0.898570000000     0.759835000000     0          
C        C      0.330010000000     0.920760000000     0.767185000000     0          
C        C      0.352370000000     0.949090000000     0.788665000000     0          
C        C      0.353510000000     0.984730000000     0.790050000000     0          
C        C      0.332350000000     0.993280000000     0.768680000000     0          
C        C      0.310090000000     0.965200000000     0.747775000000     0          
C        C      0.308300000000     0.929330000000     0.747150000000     0          
C        C      0.507770000000     0.905370000000     0.774255000000     0          
C        C      0.287050000000     0.973740000000     0.724605000000     0          
C        C      0.376890000000     0.013810000000     0.814725000000     0          
C        C      0.813370000000     0.068490000000     0.938000000000     0          
C        C      0.855270000000     0.099470000000     0.929830000000     0          
C        C      0.874010000000     0.096490000000     0.903485000000     0          
C        C      0.912380000000     0.126040000000     0.897835000000     0          
C        C      0.932770000000     0.157610000000     0.916590000000     0          
C        C      0.913980000000     0.159910000000     0.941350000000     0          
C        C      0.875200000000     0.131700000000     0.948260000000     0          
C        C      0.975700000000     0.188960000000     0.909910000000     0          
C        C      0.012810000000     0.206010000000     0.956480000000     0          
C        C      0.054290000000     0.214850000000     0.952620000000     0          
C        C      0.073560000000     0.206470000000     0.973985000000     0          
C        C      0.111900000000     0.213740000000     0.969555000000     0          
C        C      0.131850000000     0.230080000000     0.944720000000     0          
C        C      0.114480000000     0.239960000000     0.921915000000     0          
C        C      0.075860000000     0.231900000000     0.926500000000     0          
C        C      0.996680000000     0.254090000000     0.933850000000     0          
C        C      0.019040000000     0.282420000000     0.955330000000     0          
C        C      0.020180000000     0.318060000000     0.956715000000     0          
C        C      0.999020000000     0.326610000000     0.935345000000     0          
C        C      0.976760000000     0.298530000000     0.914440000000     0          
C        C      0.974970000000     0.262660000000     0.913815000000     0          
C        C      0.174440000000     0.238700000000     0.940920000000     0          
C        C      0.953720000000     0.307070000000     0.891270000000     0          
C        C      0.043560000000     0.347140000000     0.981390000000     0          
C        C      0.480030000000     0.401830000000     0.604670000000     0          
C        C      0.521930000000     0.432810000000     0.596500000000     0          
C        C      0.540670000000     0.429830000000     0.570155000000     0          
C        C      0.579040000000     0.459380000000     0.564505000000     0          
C        C      0.599430000000     0.490950000000     0.583260000000     0          
C        C      0.580640000000     0.493250000000     0.608020000000     0          
C        C      0.541860000000     0.465040000000     0.614930000000     0          
C        C      0.642360000000     0.522300000000     0.576580000000     0          
C        C      0.679470000000     0.539350000000     0.623150000000     0          
C        C      0.720950000000     0.548190000000     0.619290000000     0          
C        C      0.740220000000     0.539810000000     0.640655000000     0          
C        C      0.778560000000     0.547080000000     0.636225000000     0          
C        C      0.798510000000     0.563420000000     0.611390000000     0          
C        C      0.781140000000     0.573300000000     0.588585000000     0          
C        C      0.742520000000     0.565240000000     0.593170000000     0          
C        C      0.663340000000     0.587430000000     0.600520000000     0          
C        C      0.685700000000     0.615760000000     0.622000000000     0          
C        C      0.686840000000     0.651400000000     0.623385000000     0          
C        C      0.665680000000     0.659950000000     0.602015000000     0          
C        C      0.643420000000     0.631870000000     0.581110000000     0          
C        C      0.641630000000     0.596000000000     0.580485000000     0          
C        C      0.841100000000     0.572040000000     0.607590000000     0          
C        C      0.620380000000     0.640410000000     0.557940000000     0          
C        C      0.710220000000     0.680480000000     0.648060000000     0          
C        C      0.588460000000     0.853300000000     0.771335000000     0          
C        C      0.577540000000     0.811400000000     0.763165000000     0          
C        C      0.555820000000     0.792660000000     0.736820000000     0          
C        C      0.547000000000     0.754290000000     0.731170000000     0          
C        C      0.558180000000     0.733900000000     0.749925000000     0          
C        C      0.579270000000     0.752690000000     0.774685000000     0          
C        C      0.589840000000     0.791470000000     0.781595000000     0          
C        C      0.546600000000     0.690970000000     0.743245000000     0          
C        C      0.526540000000     0.653860000000     0.789815000000     0          
C        C      0.493900000000     0.612380000000     0.785955000000     0          
C        C      0.466250000000     0.593110000000     0.807320000000     0          
C        C      0.435180000000     0.554770000000     0.802890000000     0          
C        C      0.431570000000     0.534820000000     0.778055000000     0          
C        C      0.458820000000     0.552190000000     0.755250000000     0          
C        C      0.489380000000     0.590810000000     0.759835000000     0          
C        C      0.590750000000     0.669990000000     0.767185000000     0          
C        C      0.596720000000     0.647630000000     0.788665000000     0          
C        C      0.631220000000     0.646490000000     0.790050000000     0          
C        C      0.660930000000     0.667650000000     0.768680000000     0          
C        C      0.655110000000     0.689910000000     0.747775000000     0          
C        C      0.621030000000     0.691700000000     0.747150000000     0          
C        C      0.397600000000     0.492230000000     0.774255000000     0          
C        C      0.686690000000     0.712950000000     0.724605000000     0          
C        C      0.636920000000     0.623110000000     0.814725000000     0          
C        C      0.255130000000     0.186630000000     0.938000000000     0          
C        C      0.244210000000     0.144730000000     0.929830000000     0          
C        C      0.222490000000     0.125990000000     0.903485000000     0          
C        C      0.213670000000     0.087620000000     0.897835000000     0          
C        C      0.224850000000     0.067230000000     0.916590000000     0          
C        C      0.245940000000     0.086020000000     0.941350000000     0          
C        C      0.256510000000     0.124800000000     0.948260000000     0          
C        C      0.213270000000     0.024300000000     0.909910000000     0          
C        C      0.193210000000     0.987190000000     0.956480000000     0          
C        C      0.160570000000     0.945710000000     0.952620000000     0          
C        C      0.132920000000     0.926440000000     0.973985000000     0          
C        C      0.101850000000     0.888100000000     0.969555000000     0          
C        C      0.098240000000     0.868150000000     0.944720000000     0          
C        C      0.125490000000     0.885520000000     0.921915000000     0          
C        C      0.156050000000     0.924140000000     0.926500000000     0          
C        C      0.257420000000     0.003320000000     0.933850000000     0          
C        C      0.263390000000     0.980960000000     0.955330000000     0          
C        C      0.297890000000     0.979820000000     0.956715000000     0          
C        C      0.327600000000     0.000980000000     0.935345000000     0          
C        C      0.321780000000     0.023240000000     0.914440000000     0          
C        C      0.287700000000     0.025030000000     0.913815000000     0          
C        C      0.064270000000     0.825560000000     0.940920000000     0          
C        C      0.353360000000     0.046280000000     0.891270000000     0          
C        C      0.303590000000     0.956440000000     0.981390000000     0          
C        C      0.921790000000     0.519970000000     0.604670000000     0          
C        C      0.910870000000     0.478070000000     0.596500000000     0          
C        C      0.889150000000     0.459330000000     0.570155000000     0          
C        C      0.880330000000     0.420960000000     0.564505000000     0          
C        C      0.891510000000     0.400570000000     0.583260000000     0          
C        C      0.912600000000     0.419360000000     0.608020000000     0          
C        C      0.923170000000     0.458140000000     0.614930000000     0          
C        C      0.879930000000     0.357640000000     0.576580000000     0          
C        C      0.859870000000     0.320530000000     0.623150000000     0          
C        C      0.827230000000     0.279050000000     0.619290000000     0          
C        C      0.799580000000     0.259780000000     0.640655000000     0          
C        C      0.768510000000     0.221440000000     0.636225000000     0          
C        C      0.764900000000     0.201490000000     0.611390000000     0          
C        C      0.792150000000     0.218860000000     0.588585000000     0          
C        C      0.822710000000     0.257480000000     0.593170000000     0          
C        C      0.924080000000     0.336660000000     0.600520000000     0          
C        C      0.930050000000     0.314300000000     0.622000000000     0          
C        C      0.964550000000     0.313160000000     0.623385000000     0          
C        C      0.994260000000     0.334320000000     0.602015000000     0          
C        C      0.988440000000     0.356580000000     0.581110000000     0          
C        C      0.954360000000     0.358370000000     0.580485000000     0          
C        C      0.730930000000     0.158900000000     0.607590000000     0          
C        C      0.020020000000     0.379620000000     0.557940000000     0          
C        C      0.970250000000     0.289780000000     0.648060000000     0          
N        N      0.554610000000     0.883880000000     0.016495000000     0          
N        N      0.221280000000     0.217210000000     0.183160000000     0          
N        N      0.887940000000     0.550550000000     0.349830000000     0          
N        N      0.116120000000     0.670730000000     0.016495000000     0          
N        N      0.782790000000     0.004060000000     0.183160000000     0          
N        N      0.449450000000     0.337400000000     0.349830000000     0          
N        N      0.329270000000     0.445390000000     0.016495000000     0          
N        N      0.995940000000     0.778720000000     0.183160000000     0          
N        N      0.662600000000     0.112060000000     0.349830000000     0          
N        N      0.116120000000     0.445390000000     0.266495000000     0          
N        N      0.782790000000     0.778720000000     0.433160000000     0          
N        N      0.449450000000     0.112060000000     0.099830000000     0          
N        N      0.329270000000     0.883880000000     0.266495000000     0          
N        N      0.995940000000     0.217210000000     0.433160000000     0          
N        N      0.662600000000     0.550550000000     0.099830000000     0          
N        N      0.554610000000     0.670730000000     0.266495000000     0          
N        N      0.221280000000     0.004060000000     0.433160000000     0          
N        N      0.887940000000     0.337400000000     0.099830000000     0          
N        N      0.554610000000     0.883880000000     0.516495000000     0          
N        N      0.221280000000     0.217210000000     0.683160000000     0          
N        N      0.887940000000     0.550550000000     0.849830000000     0          
N        N      0.116120000000     0.670730000000     0.516495000000     0          
N        N      0.782790000000     0.004060000000     0.683160000000     0          
N        N      0.449450000000     0.337400000000     0.849830000000     0          
N        N      0.329270000000     0.445390000000     0.516495000000     0          
N        N      0.995940000000     0.778720000000     0.683160000000     0          
N        N      0.662600000000     0.112060000000     0.849830000000     0          
N        N      0.116120000000     0.445390000000     0.766495000000     0          
N        N      0.782790000000     0.778720000000     0.933160000000     0          
N        N      0.449450000000     0.112060000000     0.599830000000     0          
N        N      0.329270000000     0.883880000000     0.766495000000     0          
N        N      0.995940000000     0.217210000000     0.933160000000     0          
N        N      0.662600000000     0.550550000000     0.599830000000     0          
N        N      0.554610000000     0.670730000000     0.766495000000     0          
N        N      0.221280000000     0.004060000000     0.933160000000     0          
N        N      0.887940000000     0.337400000000     0.599830000000     0          


