data_[CoreMOF]ZOFZUR_clean

_audit_creation_method RASPA-1.0
_audit_creation_date 2025-1-26
_audit_author_name ''

_cell_length_a    38.9881
_cell_length_b    38.9881
_cell_length_c    22.2962
_cell_angle_alpha 90
_cell_angle_beta  90
_cell_angle_gamma 120
_cell_volume      29351.2

_symmetry_cell_setting          triclinic
_symmetry_space_group_name_Hall 'P 1'
_symmetry_space_group_name_H-M  'P 1'
_symmetry_Int_Tables_number     1

_symmetry_equiv_pos_as_xyz 'x,y,z'

loop_
_atom_site_label
_atom_site_type_symbol
_atom_site_fract_x
_atom_site_fract_y
_atom_site_fract_z
_atom_site_charge
Mn1      Mn     0.663920000000     0.738240000000     0.092360000000    -0.0776078  
Mn2      Mn     0.580010000000     0.655630000000     0.033780000000    -0.0575099  
O1       O      0.394610000000     0.919900000000     0.997620000000     0.0655245  
O2       O      0.373480000000     0.897570000000     0.089700000000     0.306304   
O3       O      0.683420000000     0.946990000000     0.914770000000     0.321174   
O4       O      0.716820000000     0.008450000000     0.945600000000     0.375916   
O5       O      0.667820000000     0.047180000000     0.129430000000    -0.0779176  
O6       O      0.610380000000     0.002120000000     0.167890000000     0.730804   
O7       O      0.571840000000     0.704280000000     0.010380000000     0.93092    
O8       O      0.612680000000     0.742570000000     0.083650000000    -0.324596   
C1       C      0.588460000000     0.735160000000     0.042670000000    -0.323875   
C2       C      0.577540000000     0.766140000000     0.026330000000    -0.323741   
C3       C      0.555820000000     0.763160000000     0.973640000000    -0.413456   
H1       H      0.547800000000     0.741900000000     0.947500000000    -0.384613   
C4       C      0.547000000000     0.792710000000     0.962340000000    -0.401973   
H2       H      0.532900000000     0.791100000000     0.927800000000    -0.375398   
C5       C      0.558180000000     0.824280000000     0.999850000000    -0.404163   
C6       C      0.579270000000     0.826580000000     0.049370000000     0.3942     
H3       H      0.587000000000     0.847900000000     0.075200000000    -0.168169   
C7       C      0.589840000000     0.798370000000     0.063190000000     0.110693   
H4       H      0.605100000000     0.801300000000     0.097000000000     0.00571823 
C8       C      0.546600000000     0.855630000000     0.986490000000    -0.210536   
H5       H      0.560500000000     0.869800000000     0.950600000000     0.101245   
H6       H      0.518500000000     0.842200000000     0.977700000000     0.172131   
C9       C      0.526540000000     0.872680000000     0.079630000000    -0.211548   
H7       H      0.540600000000     0.885500000000     0.116100000000     0.110451   
H8       H      0.514800000000     0.844400000000     0.085700000000     0.113606   
C10      C      0.493900000000     0.881520000000     0.071910000000    -0.00349617 
C11      C      0.466250000000     0.873140000000     0.114640000000    -0.191023   
H9       H      0.468100000000     0.862300000000     0.150800000000     0.0888658  
C12      C      0.435180000000     0.880410000000     0.105780000000     0.0898906  
H10      H      0.416300000000     0.873500000000     0.135800000000    -0.182061   
C13      C      0.431570000000     0.896750000000     0.056110000000     0.079112   
C14      C      0.458820000000     0.906630000000     0.010500000000     0.0875434  
H11      H      0.456800000000     0.918200000000     0.975100000000     0.14982    
C15      C      0.489380000000     0.898570000000     0.019670000000    -0.196022   
H12      H      0.507900000000     0.904900000000     0.989200000000     0.0915576  
C16      C      0.590750000000     0.920760000000     0.034370000000     0.0905346  
C17      C      0.596720000000     0.949090000000     0.077330000000     0.013228   
H13      H      0.576700000000     0.943700000000     0.104900000000    -0.128024   
C18      C      0.631220000000     0.984730000000     0.080100000000     0.0762123  
C19      C      0.660930000000     0.993280000000     0.037360000000     0.0159729  
H14      H      0.684200000000     0.017700000000     0.037500000000    -0.175454   
C20      C      0.655110000000     0.965200000000     0.995550000000     0.0976555  
C21      C      0.621030000000     0.929330000000     0.994300000000     0.0571862  
H15      H      0.618200000000     0.910500000000     0.966200000000    -0.0472947  
C22      C      0.397600000000     0.905370000000     0.048510000000     0.0517735  
C23      C      0.686690000000     0.973740000000     0.949210000000    -0.0905779  
C24      C      0.636920000000     0.013810000000     0.129450000000     0.0176639  
N1       N      0.554610000000     0.883880000000     0.032990000000     0.0234139  
Mn3      Mn     0.330590000000     0.071570000000     0.425690000000    -0.0776857  
Mn4      Mn     0.246670000000     0.988970000000     0.367120000000    -0.0574549  
O9       O      0.061280000000     0.253230000000     0.330950000000     0.0655087  
O10      O      0.040150000000     0.230900000000     0.423030000000     0.30632    
O11      O      0.350090000000     0.280320000000     0.248100000000     0.321275   
O12      O      0.383490000000     0.341780000000     0.278930000000     0.375866   
O13      O      0.334490000000     0.380510000000     0.462760000000    -0.0779107  
O14      O      0.277050000000     0.335450000000     0.501220000000     0.730776   
O15      O      0.238510000000     0.037610000000     0.343710000000     0.930848   
O16      O      0.279350000000     0.075900000000     0.416980000000    -0.324686   
C25      C      0.255130000000     0.068490000000     0.376000000000    -0.323915   
C26      C      0.244210000000     0.099470000000     0.359660000000    -0.323734   
C27      C      0.222490000000     0.096490000000     0.306970000000    -0.413382   
H16      H      0.214470000000     0.075230000000     0.280830000000    -0.384676   
C28      C      0.213670000000     0.126040000000     0.295670000000    -0.402048   
H17      H      0.199570000000     0.124430000000     0.261130000000    -0.375324   
C29      C      0.224850000000     0.157610000000     0.333180000000    -0.404118   
C30      C      0.245940000000     0.159910000000     0.382700000000     0.394149   
H18      H      0.253670000000     0.181230000000     0.408530000000    -0.168147   
C31      C      0.256510000000     0.131700000000     0.396520000000     0.110679   
H19      H      0.271770000000     0.134630000000     0.430330000000     0.00571663 
C32      C      0.213270000000     0.188960000000     0.319820000000    -0.210525   
H20      H      0.227170000000     0.203130000000     0.283930000000     0.101241   
H21      H      0.185170000000     0.175530000000     0.311030000000     0.172124   
C33      C      0.193210000000     0.206010000000     0.412960000000    -0.211534   
H22      H      0.207270000000     0.218830000000     0.449430000000     0.110451   
H23      H      0.181470000000     0.177730000000     0.419030000000     0.113592   
C34      C      0.160570000000     0.214850000000     0.405240000000    -0.00348101 
C35      C      0.132920000000     0.206470000000     0.447970000000    -0.191021   
H24      H      0.134770000000     0.195630000000     0.484130000000     0.0888699  
C36      C      0.101850000000     0.213740000000     0.439110000000     0.0898901  
H25      H      0.082970000000     0.206830000000     0.469130000000    -0.182053   
C37      C      0.098240000000     0.230080000000     0.389440000000     0.0791097  
C38      C      0.125490000000     0.239960000000     0.343830000000     0.0875402  
H26      H      0.123470000000     0.251530000000     0.308430000000     0.149808   
C39      C      0.156050000000     0.231900000000     0.353000000000    -0.196004   
H27      H      0.174570000000     0.238230000000     0.322530000000     0.0915521  
C40      C      0.257420000000     0.254090000000     0.367700000000     0.0905136  
C41      C      0.263390000000     0.282420000000     0.410660000000     0.0132419  
H28      H      0.243370000000     0.277030000000     0.438230000000    -0.127996   
C42      C      0.297890000000     0.318060000000     0.413430000000     0.076196   
C43      C      0.327600000000     0.326610000000     0.370690000000     0.0159841  
H29      H      0.350870000000     0.351030000000     0.370830000000    -0.175439   
C44      C      0.321780000000     0.298530000000     0.328880000000     0.0976529  
C45      C      0.287700000000     0.262660000000     0.327630000000     0.0571641  
H30      H      0.284870000000     0.243830000000     0.299530000000    -0.0472389  
C46      C      0.064270000000     0.238700000000     0.381840000000     0.0517542  
C47      C      0.353360000000     0.307070000000     0.282540000000    -0.0906601  
C48      C      0.303590000000     0.347140000000     0.462780000000     0.0178245  
N2       N      0.221280000000     0.217210000000     0.366320000000     0.0233296  
Mn5      Mn     0.997250000000     0.404900000000     0.759030000000    -0.0776841  
Mn6      Mn     0.913340000000     0.322300000000     0.700450000000    -0.0574324  
O17      O      0.727940000000     0.586570000000     0.664290000000     0.0655147  
O18      O      0.706810000000     0.564240000000     0.756370000000     0.306306   
O19      O      0.016750000000     0.613660000000     0.581440000000     0.321237   
O20      O      0.050150000000     0.675120000000     0.612270000000     0.376006   
O21      O      0.001150000000     0.713850000000     0.796100000000    -0.0779077  
O22      O      0.943710000000     0.668790000000     0.834560000000     0.730732   
O23      O      0.905170000000     0.370950000000     0.677050000000     0.93091    
O24      O      0.946010000000     0.409240000000     0.750320000000    -0.324645   
C49      C      0.921790000000     0.401830000000     0.709340000000    -0.323883   
C50      C      0.910870000000     0.432810000000     0.693000000000    -0.32369    
C51      C      0.889150000000     0.429830000000     0.640310000000    -0.413344   
H31      H      0.881130000000     0.408570000000     0.614170000000    -0.384612   
C52      C      0.880330000000     0.459380000000     0.629010000000    -0.401984   
H32      H      0.866230000000     0.457770000000     0.594470000000    -0.375376   
C53      C      0.891510000000     0.490950000000     0.666520000000    -0.40416    
C54      C      0.912600000000     0.493250000000     0.716040000000     0.394186   
H33      H      0.920330000000     0.514570000000     0.741870000000    -0.168169   
C55      C      0.923170000000     0.465040000000     0.729860000000     0.110685   
H34      H      0.938430000000     0.467970000000     0.763670000000     0.00570912 
C56      C      0.879930000000     0.522300000000     0.653160000000    -0.210533   
H35      H      0.893830000000     0.536470000000     0.617270000000     0.10124    
H36      H      0.851830000000     0.508870000000     0.644370000000     0.172121   
C57      C      0.859870000000     0.539350000000     0.746300000000    -0.211542   
H37      H      0.873930000000     0.552170000000     0.782770000000     0.110446   
H38      H      0.848130000000     0.511070000000     0.752370000000     0.1136     
C58      C      0.827230000000     0.548190000000     0.738580000000    -0.00349757 
C59      C      0.799580000000     0.539810000000     0.781310000000    -0.191017   
H39      H      0.801430000000     0.528970000000     0.817470000000     0.0888609  
C60      C      0.768510000000     0.547080000000     0.772450000000     0.0898871  
H40      H      0.749630000000     0.540170000000     0.802470000000    -0.182049   
C61      C      0.764900000000     0.563420000000     0.722780000000     0.0791035  
C62      C      0.792150000000     0.573300000000     0.677170000000     0.0875388  
H41      H      0.790130000000     0.584870000000     0.641770000000     0.149807   
C63      C      0.822710000000     0.565240000000     0.686340000000    -0.196012   
H42      H      0.841230000000     0.571570000000     0.655870000000     0.0915518  
C64      C      0.924080000000     0.587430000000     0.701040000000     0.0905211  
C65      C      0.930050000000     0.615760000000     0.744000000000     0.0132352  
H43      H      0.910030000000     0.610370000000     0.771570000000    -0.128014   
C66      C      0.964550000000     0.651400000000     0.746770000000     0.0762018  
C67      C      0.994260000000     0.659950000000     0.704030000000     0.0159709  
H44      H      0.017530000000     0.684370000000     0.704170000000    -0.175445   
C68      C      0.988440000000     0.631870000000     0.662220000000     0.097646   
C69      C      0.954360000000     0.596000000000     0.660970000000     0.0572057  
H45      H      0.951530000000     0.577170000000     0.632870000000    -0.0473079  
C70      C      0.730930000000     0.572040000000     0.715180000000     0.0517636  
C71      C      0.020020000000     0.640410000000     0.615880000000    -0.0905917  
C72      C      0.970250000000     0.680480000000     0.796120000000     0.0175142  
N3       N      0.887940000000     0.550550000000     0.699660000000     0.0235073  
Mn7      Mn     0.261760000000     0.925680000000     0.092360000000    -0.0776126  
Mn8      Mn     0.344370000000     0.924370000000     0.033780000000    -0.0575077  
O25      O      0.080100000000     0.474710000000     0.997620000000     0.0655235  
O26      O      0.102430000000     0.475910000000     0.089700000000     0.306315   
O27      O      0.053010000000     0.736430000000     0.914770000000     0.321165   
O28      O      0.991550000000     0.708370000000     0.945600000000     0.375924   
O29      O      0.952820000000     0.620640000000     0.129430000000    -0.0779166  
O30      O      0.997880000000     0.608260000000     0.167890000000     0.730789   
O31      O      0.295720000000     0.867560000000     0.010380000000     0.930766   
O32      O      0.257430000000     0.870110000000     0.083650000000    -0.324697   
C73      C      0.264840000000     0.853300000000     0.042670000000    -0.323938   
C74      C      0.233860000000     0.811400000000     0.026330000000    -0.323727   
C75      C      0.236840000000     0.792660000000     0.973640000000    -0.413447   
H46      H      0.258100000000     0.805900000000     0.947500000000    -0.384632   
C76      C      0.207290000000     0.754290000000     0.962340000000    -0.402001   
H47      H      0.208900000000     0.741800000000     0.927800000000    -0.375303   
C77      C      0.175720000000     0.733900000000     0.999850000000    -0.40416    
C78      C      0.173420000000     0.752690000000     0.049370000000     0.394159   
H48      H      0.152100000000     0.739100000000     0.075200000000    -0.168159   
C79      C      0.201630000000     0.791470000000     0.063190000000     0.110697   
H49      H      0.198700000000     0.803800000000     0.097000000000     0.00572174 
C80      C      0.144370000000     0.690970000000     0.986490000000    -0.210545   
H50      H      0.130200000000     0.690700000000     0.950600000000     0.101259   
H51      H      0.157800000000     0.676300000000     0.977700000000     0.172152   
C81      C      0.127320000000     0.653860000000     0.079630000000    -0.21156    
H52      H      0.114500000000     0.655100000000     0.116100000000     0.110462   
H53      H      0.155600000000     0.670400000000     0.085700000000     0.113611   
C82      C      0.118480000000     0.612380000000     0.071910000000    -0.00349433 
C83      C      0.126860000000     0.593110000000     0.114640000000    -0.191062   
H54      H      0.137700000000     0.605800000000     0.150800000000     0.0888874  
C84      C      0.119590000000     0.554770000000     0.105780000000     0.0899242  
H55      H      0.126500000000     0.542800000000     0.135800000000    -0.182307   
C85      C      0.103250000000     0.534820000000     0.056110000000     0.0791664  
C86      C      0.093370000000     0.552190000000     0.010500000000     0.0876625  
H56      H      0.081800000000     0.538600000000     0.975100000000     0.149911   
C87      C      0.101430000000     0.590810000000     0.019670000000    -0.196094   
H57      H      0.095100000000     0.603000000000     0.989200000000     0.0915765  
C88      C      0.079240000000     0.669990000000     0.034370000000     0.0905767  
C89      C      0.050910000000     0.647630000000     0.077330000000     0.0132202  
H58      H      0.056300000000     0.633000000000     0.104900000000    -0.128041   
C90      C      0.015270000000     0.646490000000     0.080100000000     0.0762495  
C91      C      0.006720000000     0.667650000000     0.037360000000     0.0159616  
H59      H      0.982300000000     0.666500000000     0.037500000000    -0.175519   
C92      C      0.034800000000     0.689910000000     0.995550000000     0.0976646  
C93      C      0.070670000000     0.691700000000     0.994300000000     0.0572087  
H60      H      0.089500000000     0.707700000000     0.966200000000    -0.0473019  
C94      C      0.094630000000     0.492230000000     0.048510000000     0.0517692  
C95      C      0.026260000000     0.712950000000     0.949210000000    -0.0907238  
C96      C      0.986190000000     0.623110000000     0.129450000000     0.0179474  
N4       N      0.116120000000     0.670730000000     0.032990000000     0.0232718  
Mn9      Mn     0.928430000000     0.259010000000     0.425690000000    -0.077794   
Mn10     Mn     0.011030000000     0.257710000000     0.367120000000    -0.0573906  
O33      O      0.746770000000     0.808040000000     0.330950000000     0.0654892  
O34      O      0.769100000000     0.809240000000     0.423030000000     0.306314   
O35      O      0.719680000000     0.069760000000     0.248100000000     0.32133    
O36      O      0.658220000000     0.041700000000     0.278930000000     0.375913   
O37      O      0.619490000000     0.953970000000     0.462760000000    -0.077846   
O38      O      0.664550000000     0.941590000000     0.501220000000     0.730786   
O39      O      0.962390000000     0.200890000000     0.343710000000     0.930987   
O40      O      0.924100000000     0.203440000000     0.416980000000    -0.324637   
C97      C      0.931510000000     0.186630000000     0.376000000000    -0.323883   
C98      C      0.900530000000     0.144730000000     0.359660000000    -0.323774   
C99      C      0.903510000000     0.125990000000     0.306970000000    -0.413419   
H61      H      0.924770000000     0.139230000000     0.280830000000    -0.384601   
C100     C      0.873960000000     0.087620000000     0.295670000000    -0.40199    
H62      H      0.875570000000     0.075130000000     0.261130000000    -0.375389   
C101     C      0.842390000000     0.067230000000     0.333180000000    -0.404193   
C102     C      0.840090000000     0.086020000000     0.382700000000     0.394205   
H63      H      0.818770000000     0.072430000000     0.408530000000    -0.168181   
C103     C      0.868300000000     0.124800000000     0.396520000000     0.110698   
H64      H      0.865370000000     0.137130000000     0.430330000000     0.00570592 
C104     C      0.811040000000     0.024300000000     0.319820000000    -0.210543   
H65      H      0.796870000000     0.024030000000     0.283930000000     0.101244   
H66      H      0.824470000000     0.009630000000     0.311030000000     0.172133   
C105     C      0.793990000000     0.987190000000     0.412960000000    -0.211554   
H67      H      0.781170000000     0.988430000000     0.449430000000     0.110453   
H68      H      0.822270000000     0.003730000000     0.419030000000     0.113612   
C106     C      0.785150000000     0.945710000000     0.405240000000    -0.00349773 
C107     C      0.793530000000     0.926440000000     0.447970000000    -0.191024   
H69      H      0.804370000000     0.939130000000     0.484130000000     0.0888656  
C108     C      0.786260000000     0.888100000000     0.439110000000     0.0898901  
H70      H      0.793170000000     0.876130000000     0.469130000000    -0.182052   
C109     C      0.769920000000     0.868150000000     0.389440000000     0.0791072  
C110     C      0.760040000000     0.885520000000     0.343830000000     0.0875394  
H71      H      0.748470000000     0.871930000000     0.308430000000     0.149809   
C111     C      0.768100000000     0.924140000000     0.353000000000    -0.196009   
H72      H      0.761770000000     0.936330000000     0.322530000000     0.091552   
C112     C      0.745910000000     0.003320000000     0.367700000000     0.0905189  
C113     C      0.717580000000     0.980960000000     0.410660000000     0.0132382  
H73      H      0.722970000000     0.966330000000     0.438230000000    -0.128007   
C114     C      0.681940000000     0.979820000000     0.413430000000     0.0761998  
C115     C      0.673390000000     0.000980000000     0.370690000000     0.0159806  
H74      H      0.648970000000     0.999830000000     0.370830000000    -0.175443   
C116     C      0.701470000000     0.023240000000     0.328880000000     0.097652   
C117     C      0.737340000000     0.025030000000     0.327630000000     0.0571857  
H75      H      0.756170000000     0.041030000000     0.299530000000    -0.0472912  
C118     C      0.761300000000     0.825560000000     0.381840000000     0.0517691  
C119     C      0.692930000000     0.046280000000     0.282540000000    -0.09058    
C120     C      0.652860000000     0.956440000000     0.462780000000     0.0176624  
N5       N      0.782790000000     0.004060000000     0.366320000000     0.0234221  
Mn11     Mn     0.595100000000     0.592350000000     0.759030000000    -0.0776811  
Mn12     Mn     0.677700000000     0.591040000000     0.700450000000    -0.0574558  
O41      O      0.413430000000     0.141380000000     0.664290000000     0.0655091  
O42      O      0.435760000000     0.142580000000     0.756370000000     0.306312   
O43      O      0.386340000000     0.403100000000     0.581440000000     0.321271   
O44      O      0.324880000000     0.375040000000     0.612270000000     0.375881   
O45      O      0.286150000000     0.287310000000     0.796100000000    -0.0779117  
O46      O      0.331210000000     0.274930000000     0.834560000000     0.730678   
O47      O      0.629050000000     0.534230000000     0.677050000000     0.93087    
O48      O      0.590760000000     0.536780000000     0.750320000000    -0.324662   
C121     C      0.598170000000     0.519970000000     0.709340000000    -0.323872   
C122     C      0.567190000000     0.478070000000     0.693000000000    -0.323751   
C123     C      0.570170000000     0.459330000000     0.640310000000    -0.413372   
H76      H      0.591430000000     0.472570000000     0.614170000000    -0.38461    
C124     C      0.540620000000     0.420960000000     0.629010000000    -0.401989   
H77      H      0.542230000000     0.408470000000     0.594470000000    -0.375399   
C125     C      0.509050000000     0.400570000000     0.666520000000    -0.404165   
C126     C      0.506750000000     0.419360000000     0.716040000000     0.394185   
H78      H      0.485430000000     0.405770000000     0.741870000000    -0.168167   
C127     C      0.534960000000     0.458140000000     0.729860000000     0.110685   
H79      H      0.532030000000     0.470470000000     0.763670000000     0.00571023 
C128     C      0.477700000000     0.357640000000     0.653160000000    -0.210534   
H80      H      0.463530000000     0.357370000000     0.617270000000     0.101241   
H81      H      0.491130000000     0.342970000000     0.644370000000     0.172123   
C129     C      0.460650000000     0.320530000000     0.746300000000    -0.211543   
H82      H      0.447830000000     0.321770000000     0.782770000000     0.110448   
H83      H      0.488930000000     0.337070000000     0.752370000000     0.1136     
C130     C      0.451810000000     0.279050000000     0.738580000000    -0.00349549 
C131     C      0.460190000000     0.259780000000     0.781310000000    -0.191021   
H84      H      0.471030000000     0.272470000000     0.817470000000     0.0888653  
C132     C      0.452920000000     0.221440000000     0.772450000000     0.0898895  
H85      H      0.459830000000     0.209470000000     0.802470000000    -0.182053   
C133     C      0.436580000000     0.201490000000     0.722780000000     0.0791093  
C134     C      0.426700000000     0.218860000000     0.677170000000     0.0875404  
H86      H      0.415130000000     0.205270000000     0.641770000000     0.14981    
C135     C      0.434760000000     0.257480000000     0.686340000000    -0.196006   
H87      H      0.428430000000     0.269670000000     0.655870000000     0.0915547  
C136     C      0.412570000000     0.336660000000     0.701040000000     0.0905193  
C137     C      0.384240000000     0.314300000000     0.744000000000     0.0132407  
H88      H      0.389630000000     0.299670000000     0.771570000000    -0.128004   
C138     C      0.348600000000     0.313160000000     0.746770000000     0.0762011  
C139     C      0.340050000000     0.334320000000     0.704030000000     0.0159797  
H89      H      0.315630000000     0.333170000000     0.704170000000    -0.17544    
C140     C      0.368130000000     0.356580000000     0.662220000000     0.0976505  
C141     C      0.404000000000     0.358370000000     0.660970000000     0.0571942  
H90      H      0.422830000000     0.374370000000     0.632870000000    -0.0473007  
C142     C      0.427960000000     0.158900000000     0.715180000000     0.0517768  
C143     C      0.359590000000     0.379620000000     0.615880000000    -0.0905719  
C144     C      0.319520000000     0.289780000000     0.796120000000     0.0176535  
N6       N      0.449450000000     0.337400000000     0.699660000000     0.0234284  
Mn13     Mn     0.074320000000     0.336080000000     0.092360000000    -0.0776694  
Mn14     Mn     0.075630000000     0.419990000000     0.033780000000    -0.0574673  
O49      O      0.525290000000     0.605390000000     0.997620000000     0.0655127  
O50      O      0.524090000000     0.626520000000     0.089700000000     0.306311   
O51      O      0.263570000000     0.316580000000     0.914770000000     0.321253   
O52      O      0.291630000000     0.283180000000     0.945600000000     0.375873   
O53      O      0.379360000000     0.332180000000     0.129430000000    -0.0779127  
O54      O      0.391740000000     0.389620000000     0.167890000000     0.730715   
O55      O      0.132440000000     0.428160000000     0.010380000000     0.930933   
O56      O      0.129890000000     0.387320000000     0.083650000000    -0.324658   
C145     C      0.146700000000     0.411540000000     0.042670000000    -0.32396    
C146     C      0.188600000000     0.422460000000     0.026330000000    -0.323773   
C147     C      0.207340000000     0.444180000000     0.973640000000    -0.413487   
H91      H      0.194100000000     0.452200000000     0.947500000000    -0.384624   
C148     C      0.245710000000     0.453000000000     0.962340000000    -0.401989   
H92      H      0.258200000000     0.467100000000     0.927800000000    -0.375296   
C149     C      0.266100000000     0.441820000000     0.999850000000    -0.404147   
C150     C      0.247310000000     0.420730000000     0.049370000000     0.394162   
H93      H      0.260900000000     0.413000000000     0.075200000000    -0.168172   
C151     C      0.208530000000     0.410160000000     0.063190000000     0.110699   
H94      H      0.196200000000     0.394900000000     0.097000000000     0.00570671 
C152     C      0.309030000000     0.453400000000     0.986490000000    -0.210551   
H95      H      0.309300000000     0.439500000000     0.950600000000     0.101252   
H96      H      0.323700000000     0.481500000000     0.977700000000     0.172151   
C153     C      0.346140000000     0.473460000000     0.079630000000    -0.211565   
H97      H      0.344900000000     0.459400000000     0.116100000000     0.110462   
H98      H      0.329600000000     0.485200000000     0.085700000000     0.113615   
C154     C      0.387620000000     0.506100000000     0.071910000000    -0.00349823 
C155     C      0.406890000000     0.533750000000     0.114640000000    -0.191058   
H99      H      0.394200000000     0.531900000000     0.150800000000     0.0888848  
C156     C      0.445230000000     0.564820000000     0.105780000000     0.0899171  
H100     H      0.457200000000     0.583700000000     0.135800000000    -0.182301   
C157     C      0.465180000000     0.568430000000     0.056110000000     0.0791614  
C158     C      0.447810000000     0.541180000000     0.010500000000     0.0876541  
H101     H      0.461400000000     0.543200000000     0.975100000000     0.149909   
C159     C      0.409190000000     0.510620000000     0.019670000000    -0.196102   
H102     H      0.397000000000     0.492100000000     0.989200000000     0.0915699  
C160     C      0.330010000000     0.409250000000     0.034370000000     0.0905828  
C161     C      0.352370000000     0.403280000000     0.077330000000     0.0132066  
H103     H      0.367000000000     0.423300000000     0.104900000000    -0.128057   
C162     C      0.353510000000     0.368780000000     0.080100000000     0.0762544  
C163     C      0.332350000000     0.339070000000     0.037360000000     0.0159552  
H104     H      0.333500000000     0.315800000000     0.037500000000    -0.175525   
C164     C      0.310090000000     0.344890000000     0.995550000000     0.0976643  
C165     C      0.308300000000     0.378970000000     0.994300000000     0.0572031  
H105     H      0.292300000000     0.381800000000     0.966200000000    -0.0472948  
C166     C      0.507770000000     0.602400000000     0.048510000000     0.0517631  
C167     C      0.287050000000     0.313310000000     0.949210000000    -0.0907304  
C168     C      0.376890000000     0.363080000000     0.129450000000     0.017956   
N7       N      0.329270000000     0.445390000000     0.032990000000     0.0232643  
Mn15     Mn     0.740990000000     0.669410000000     0.425690000000    -0.0778065  
Mn16     Mn     0.742290000000     0.753330000000     0.367120000000    -0.0573826  
O57      O      0.191960000000     0.938720000000     0.330950000000     0.0654872  
O58      O      0.190760000000     0.959850000000     0.423030000000     0.306324   
O59      O      0.930240000000     0.649910000000     0.248100000000     0.321349   
O60      O      0.958300000000     0.616510000000     0.278930000000     0.375917   
O61      O      0.046030000000     0.665510000000     0.462760000000    -0.0778471  
O62      O      0.058410000000     0.722950000000     0.501220000000     0.730866   
O63      O      0.799110000000     0.761490000000     0.343710000000     0.93094    
O64      O      0.796560000000     0.720650000000     0.416980000000    -0.324655   
C169     C      0.813370000000     0.744870000000     0.376000000000    -0.323883   
C170     C      0.855270000000     0.755790000000     0.359660000000    -0.323698   
C171     C      0.874010000000     0.777510000000     0.306970000000    -0.413381   
H106     H      0.860770000000     0.785530000000     0.280830000000    -0.384678   
C172     C      0.912380000000     0.786330000000     0.295670000000    -0.402039   
H107     H      0.924870000000     0.800430000000     0.261130000000    -0.375404   
C173     C      0.932770000000     0.775150000000     0.333180000000    -0.404166   
C174     C      0.913980000000     0.754060000000     0.382700000000     0.394195   
H108     H      0.927570000000     0.746330000000     0.408530000000    -0.168172   
C175     C      0.875200000000     0.743490000000     0.396520000000     0.110697   
H109     H      0.862870000000     0.728230000000     0.430330000000     0.00570991 
C176     C      0.975700000000     0.786730000000     0.319820000000    -0.21054    
H110     H      0.975970000000     0.772830000000     0.283930000000     0.101246   
H111     H      0.990370000000     0.814830000000     0.311030000000     0.172136   
C177     C      0.012810000000     0.806790000000     0.412960000000    -0.21155    
H112     H      0.011570000000     0.792730000000     0.449430000000     0.110457   
H113     H      0.996270000000     0.818530000000     0.419030000000     0.113611   
C178     C      0.054290000000     0.839430000000     0.405240000000    -0.00349059 
C179     C      0.073560000000     0.867080000000     0.447970000000    -0.191027   
H114     H      0.060870000000     0.865230000000     0.484130000000     0.088871   
C180     C      0.111900000000     0.898150000000     0.439110000000     0.0898918  
H115     H      0.123870000000     0.917030000000     0.469130000000    -0.18206    
C181     C      0.131850000000     0.901760000000     0.389440000000     0.0791155  
C182     C      0.114480000000     0.874510000000     0.343830000000     0.0875431  
H116     H      0.128070000000     0.876530000000     0.308430000000     0.149815   
C183     C      0.075860000000     0.843950000000     0.353000000000    -0.196012   
H117     H      0.063670000000     0.825430000000     0.322530000000     0.0915568  
C184     C      0.996680000000     0.742580000000     0.367700000000     0.0905217  
C185     C      0.019040000000     0.736610000000     0.410660000000     0.0132383  
H118     H      0.033670000000     0.756630000000     0.438230000000    -0.128006   
C186     C      0.020180000000     0.702110000000     0.413430000000     0.0762026  
C187     C      0.999020000000     0.672400000000     0.370690000000     0.0159817  
H119     H      0.000170000000     0.649130000000     0.370830000000    -0.175446   
C188     C      0.976760000000     0.678220000000     0.328880000000     0.097655   
C189     C      0.974970000000     0.712300000000     0.327630000000     0.0571725  
H120     H      0.958970000000     0.715130000000     0.299530000000    -0.0472495  
C190     C      0.174440000000     0.935730000000     0.381840000000     0.0517624  
C191     C      0.953720000000     0.646640000000     0.282540000000    -0.0906457  
C192     C      0.043560000000     0.696410000000     0.462780000000     0.0178089  
N8       N      0.995940000000     0.778720000000     0.366320000000     0.0233374  
Mn17     Mn     0.407650000000     0.002750000000     0.759030000000    -0.0776635  
Mn18     Mn     0.408960000000     0.086660000000     0.700450000000    -0.0574463  
O65      O      0.858620000000     0.272060000000     0.664290000000     0.0655189  
O66      O      0.857420000000     0.293190000000     0.756370000000     0.306309   
O67      O      0.596900000000     0.983250000000     0.581440000000     0.321207   
O68      O      0.624960000000     0.949850000000     0.612270000000     0.375991   
O69      O      0.712690000000     0.998850000000     0.796100000000    -0.0779072  
O70      O      0.725070000000     0.056290000000     0.834560000000     0.730726   
O71      O      0.465770000000     0.094830000000     0.677050000000     0.930906   
O72      O      0.463220000000     0.053990000000     0.750320000000    -0.324695   
C193     C      0.480030000000     0.078210000000     0.709340000000    -0.323925   
C194     C      0.521930000000     0.089130000000     0.693000000000    -0.323723   
C195     C      0.540670000000     0.110850000000     0.640310000000    -0.413377   
H121     H      0.527430000000     0.118870000000     0.614170000000    -0.384605   
C196     C      0.579040000000     0.119670000000     0.629010000000    -0.401976   
H122     H      0.591530000000     0.133770000000     0.594470000000    -0.375334   
C197     C      0.599430000000     0.108490000000     0.666520000000    -0.404149   
C198     C      0.580640000000     0.087400000000     0.716040000000     0.394167   
H123     H      0.594230000000     0.079670000000     0.741870000000    -0.168164   
C199     C      0.541860000000     0.076830000000     0.729860000000     0.110684   
H124     H      0.529530000000     0.061570000000     0.763670000000     0.00571045 
C200     C      0.642360000000     0.120070000000     0.653160000000    -0.210532   
H125     H      0.642630000000     0.106170000000     0.617270000000     0.10124    
H126     H      0.657030000000     0.148170000000     0.644370000000     0.172123   
C201     C      0.679470000000     0.140130000000     0.746300000000    -0.211543   
H127     H      0.678230000000     0.126070000000     0.782770000000     0.110447   
H128     H      0.662930000000     0.151870000000     0.752370000000     0.113598   
C202     C      0.720950000000     0.172770000000     0.738580000000    -0.00349574 
C203     C      0.740220000000     0.200420000000     0.781310000000    -0.191016   
H129     H      0.727530000000     0.198570000000     0.817470000000     0.0888608  
C204     C      0.778560000000     0.231490000000     0.772450000000     0.0898876  
H130     H      0.790530000000     0.250370000000     0.802470000000    -0.182048   
C205     C      0.798510000000     0.235100000000     0.722780000000     0.0791037  
C206     C      0.781140000000     0.207850000000     0.677170000000     0.0875384  
H131     H      0.794730000000     0.209870000000     0.641770000000     0.149804   
C207     C      0.742520000000     0.177290000000     0.686340000000    -0.196005   
H132     H      0.730330000000     0.158770000000     0.655870000000     0.0915501  
C208     C      0.663340000000     0.075920000000     0.701040000000     0.0905118  
C209     C      0.685700000000     0.069950000000     0.744000000000     0.0132391  
H133     H      0.700330000000     0.089970000000     0.771570000000    -0.128002   
C210     C      0.686840000000     0.035450000000     0.746770000000     0.0761927  
C211     C      0.665680000000     0.005740000000     0.704030000000     0.0159764  
H134     H      0.666830000000     0.982470000000     0.704170000000    -0.175441   
C212     C      0.643420000000     0.011560000000     0.662220000000     0.0976466  
C213     C      0.641630000000     0.045640000000     0.660970000000     0.057207   
H135     H      0.625630000000     0.048470000000     0.632870000000    -0.0473114  
C214     C      0.841100000000     0.269070000000     0.715180000000     0.0517662  
C215     C      0.620380000000     0.979980000000     0.615880000000    -0.0905841  
C216     C      0.710220000000     0.029750000000     0.796120000000     0.0175086  
N9       N      0.662600000000     0.112060000000     0.699660000000     0.0235152  
Mn19     Mn     0.261760000000     0.336080000000     0.592360000000    -0.0776056  
Mn20     Mn     0.344370000000     0.419990000000     0.533780000000    -0.0575075  
O73      O      0.080100000000     0.605390000000     0.497620000000     0.0655241  
O74      O      0.102430000000     0.626520000000     0.589700000000     0.306302   
O75      O      0.053010000000     0.316580000000     0.414770000000     0.321174   
O76      O      0.991550000000     0.283180000000     0.445600000000     0.375916   
O77      O      0.952820000000     0.332180000000     0.629430000000    -0.0779176  
O78      O      0.997880000000     0.389620000000     0.667890000000     0.730802   
O79      O      0.295720000000     0.428160000000     0.510380000000     0.93092    
O80      O      0.257430000000     0.387320000000     0.583650000000    -0.324596   
C217     C      0.264840000000     0.411540000000     0.542670000000    -0.323875   
C218     C      0.233860000000     0.422460000000     0.526330000000    -0.323741   
C219     C      0.236840000000     0.444180000000     0.473640000000    -0.413456   
H136     H      0.258100000000     0.452200000000     0.447500000000    -0.384613   
C220     C      0.207290000000     0.453000000000     0.462340000000    -0.401972   
H137     H      0.208900000000     0.467100000000     0.427800000000    -0.375398   
C221     C      0.175720000000     0.441820000000     0.499850000000    -0.404164   
C222     C      0.173420000000     0.420730000000     0.549370000000     0.3942     
H138     H      0.152100000000     0.413000000000     0.575200000000    -0.168169   
C223     C      0.201630000000     0.410160000000     0.563190000000     0.110693   
H139     H      0.198700000000     0.394900000000     0.597000000000     0.00571816 
C224     C      0.144370000000     0.453400000000     0.486490000000    -0.210536   
H140     H      0.130200000000     0.439500000000     0.450600000000     0.101245   
H141     H      0.157800000000     0.481500000000     0.477700000000     0.172131   
C225     C      0.127320000000     0.473460000000     0.579630000000    -0.211548   
H142     H      0.114500000000     0.459400000000     0.616100000000     0.110451   
H143     H      0.155600000000     0.485200000000     0.585700000000     0.113606   
C226     C      0.118480000000     0.506100000000     0.571910000000    -0.00349684 
C227     C      0.126860000000     0.533750000000     0.614640000000    -0.191023   
H144     H      0.137700000000     0.531900000000     0.650800000000     0.0888658  
C228     C      0.119590000000     0.564820000000     0.605780000000     0.0898905  
H145     H      0.126500000000     0.583700000000     0.635800000000    -0.18206    
C229     C      0.103250000000     0.568430000000     0.556110000000     0.0791111  
C230     C      0.093370000000     0.541180000000     0.510500000000     0.0875427  
H146     H      0.081800000000     0.543200000000     0.475100000000     0.149819   
C231     C      0.101430000000     0.510620000000     0.519670000000    -0.196022   
H147     H      0.095100000000     0.492100000000     0.489200000000     0.0915565  
C232     C      0.079240000000     0.409250000000     0.534370000000     0.0905341  
C233     C      0.050910000000     0.403280000000     0.577330000000     0.0132273  
H148     H      0.056300000000     0.423300000000     0.604900000000    -0.128025   
C234     C      0.015270000000     0.368780000000     0.580100000000     0.076212   
C235     C      0.006720000000     0.339070000000     0.537360000000     0.015973   
H149     H      0.982300000000     0.315800000000     0.537500000000    -0.175454   
C236     C      0.034800000000     0.344890000000     0.495550000000     0.0976553  
C237     C      0.070670000000     0.378970000000     0.494300000000     0.0571862  
H150     H      0.089500000000     0.381800000000     0.466200000000    -0.047295   
C238     C      0.094630000000     0.602400000000     0.548510000000     0.0517731  
C239     C      0.026260000000     0.313310000000     0.449210000000    -0.0905778  
C240     C      0.986190000000     0.363080000000     0.629450000000     0.0176636  
N10      N      0.116120000000     0.445390000000     0.532990000000     0.0234138  
Mn21     Mn     0.928430000000     0.669410000000     0.925690000000    -0.0776858  
Mn22     Mn     0.011030000000     0.753330000000     0.867120000000    -0.0574551  
O81      O      0.746770000000     0.938720000000     0.830950000000     0.0655087  
O82      O      0.769100000000     0.959850000000     0.923030000000     0.30632    
O83      O      0.719680000000     0.649910000000     0.748100000000     0.321275   
O84      O      0.658220000000     0.616510000000     0.778930000000     0.375864   
O85      O      0.619490000000     0.665510000000     0.962760000000    -0.0779109  
O86      O      0.664550000000     0.722950000000     0.001220000000     0.730777   
O87      O      0.962390000000     0.761490000000     0.843710000000     0.930848   
O88      O      0.924100000000     0.720650000000     0.916980000000    -0.324686   
C241     C      0.931510000000     0.744870000000     0.876000000000    -0.323915   
C242     C      0.900530000000     0.755790000000     0.859660000000    -0.323734   
C243     C      0.903510000000     0.777510000000     0.806970000000    -0.413382   
H151     H      0.924770000000     0.785530000000     0.780830000000    -0.384676   
C244     C      0.873960000000     0.786330000000     0.795670000000    -0.402049   
H152     H      0.875570000000     0.800430000000     0.761130000000    -0.375324   
C245     C      0.842390000000     0.775150000000     0.833180000000    -0.404118   
C246     C      0.840090000000     0.754060000000     0.882700000000     0.394149   
H153     H      0.818770000000     0.746330000000     0.908530000000    -0.168147   
C247     C      0.868300000000     0.743490000000     0.896520000000     0.110679   
H154     H      0.865370000000     0.728230000000     0.930330000000     0.00571651 
C248     C      0.811040000000     0.786730000000     0.819820000000    -0.210525   
H155     H      0.796870000000     0.772830000000     0.783930000000     0.101241   
H156     H      0.824470000000     0.814830000000     0.811030000000     0.172124   
C249     C      0.793990000000     0.806790000000     0.912960000000    -0.211534   
H157     H      0.781170000000     0.792730000000     0.949430000000     0.110451   
H158     H      0.822270000000     0.818530000000     0.919030000000     0.113592   
C250     C      0.785150000000     0.839430000000     0.905240000000    -0.00348074 
C251     C      0.793530000000     0.867080000000     0.947970000000    -0.191021   
H159     H      0.804370000000     0.865230000000     0.984130000000     0.0888697  
C252     C      0.786260000000     0.898150000000     0.939110000000     0.0898899  
H160     H      0.793170000000     0.917030000000     0.969130000000    -0.182054   
C253     C      0.769920000000     0.901760000000     0.889440000000     0.07911    
C254     C      0.760040000000     0.874510000000     0.843830000000     0.0875405  
H161     H      0.748470000000     0.876530000000     0.808430000000     0.149809   
C255     C      0.768100000000     0.843950000000     0.853000000000    -0.196004   
H162     H      0.761770000000     0.825430000000     0.822530000000     0.0915526  
C256     C      0.745910000000     0.742580000000     0.867700000000     0.0905138  
C257     C      0.717580000000     0.736610000000     0.910660000000     0.0132422  
H163     H      0.722970000000     0.756630000000     0.938230000000    -0.127996   
C258     C      0.681940000000     0.702110000000     0.913430000000     0.0761961  
C259     C      0.673390000000     0.672400000000     0.870690000000     0.015984   
H164     H      0.648970000000     0.649130000000     0.870830000000    -0.175439   
C260     C      0.701470000000     0.678220000000     0.828880000000     0.0976529  
C261     C      0.737340000000     0.712300000000     0.827630000000     0.0571641  
H165     H      0.756170000000     0.715130000000     0.799530000000    -0.0472388  
C262     C      0.761300000000     0.935730000000     0.881840000000     0.0517542  
C263     C      0.692930000000     0.646640000000     0.782540000000    -0.0906601  
C264     C      0.652860000000     0.696410000000     0.962780000000     0.0178245  
N11      N      0.782790000000     0.778720000000     0.866320000000     0.0233296  
Mn23     Mn     0.595100000000     0.002750000000     0.259030000000    -0.0776841  
Mn24     Mn     0.677700000000     0.086660000000     0.200450000000    -0.0574324  
O89      O      0.413430000000     0.272060000000     0.164290000000     0.0655146  
O90      O      0.435760000000     0.293190000000     0.256370000000     0.306306   
O91      O      0.386340000000     0.983250000000     0.081440000000     0.321237   
O92      O      0.324880000000     0.949850000000     0.112270000000     0.376006   
O93      O      0.286150000000     0.998850000000     0.296100000000    -0.0779077  
O94      O      0.331210000000     0.056290000000     0.334560000000     0.730732   
O95      O      0.629050000000     0.094830000000     0.177050000000     0.930909   
O96      O      0.590760000000     0.053990000000     0.250320000000    -0.324642   
C265     C      0.598170000000     0.078210000000     0.209340000000    -0.323883   
C266     C      0.567190000000     0.089130000000     0.193000000000    -0.32369    
C267     C      0.570170000000     0.110850000000     0.140310000000    -0.413343   
H166     H      0.591430000000     0.118870000000     0.114170000000    -0.384612   
C268     C      0.540620000000     0.119670000000     0.129010000000    -0.401983   
H167     H      0.542230000000     0.133770000000     0.094470000000    -0.375377   
C269     C      0.509050000000     0.108490000000     0.166520000000    -0.404161   
C270     C      0.506750000000     0.087400000000     0.216040000000     0.394187   
H168     H      0.485430000000     0.079670000000     0.241870000000    -0.168173   
C271     C      0.534960000000     0.076830000000     0.229860000000     0.110692   
H169     H      0.532030000000     0.061570000000     0.263670000000     0.00570741 
C272     C      0.477700000000     0.120070000000     0.153160000000    -0.210538   
H170     H      0.463530000000     0.106170000000     0.117270000000     0.101242   
H171     H      0.491130000000     0.148170000000     0.144370000000     0.172128   
C273     C      0.460650000000     0.140130000000     0.246300000000    -0.211549   
H172     H      0.447830000000     0.126070000000     0.282770000000     0.110448   
H173     H      0.488930000000     0.151870000000     0.252370000000     0.113605   
C274     C      0.451810000000     0.172770000000     0.238580000000    -0.00349942 
C275     C      0.460190000000     0.200420000000     0.281310000000    -0.191018   
H174     H      0.471030000000     0.198570000000     0.317470000000     0.0888616  
C276     C      0.452920000000     0.231490000000     0.272450000000     0.0898882  
H175     H      0.459830000000     0.250370000000     0.302470000000    -0.18205    
C277     C      0.436580000000     0.235100000000     0.222780000000     0.0791036  
C278     C      0.426700000000     0.207850000000     0.177170000000     0.0875387  
H176     H      0.415130000000     0.209870000000     0.141770000000     0.149808   
C279     C      0.434760000000     0.177290000000     0.186340000000    -0.196011   
H177     H      0.428430000000     0.158770000000     0.155870000000     0.0915517  
C280     C      0.412570000000     0.075920000000     0.201040000000     0.0905204  
C281     C      0.384240000000     0.069950000000     0.244000000000     0.0132354  
H178     H      0.389630000000     0.089970000000     0.271570000000    -0.128012   
C282     C      0.348600000000     0.035450000000     0.246770000000     0.0762002  
C283     C      0.340050000000     0.005740000000     0.204030000000     0.0159728  
H179     H      0.315630000000     0.982470000000     0.204170000000    -0.175446   
C284     C      0.368130000000     0.011560000000     0.162220000000     0.0976481  
C285     C      0.404000000000     0.045640000000     0.160970000000     0.057204   
H180     H      0.422830000000     0.048470000000     0.132870000000    -0.0473076  
C286     C      0.427960000000     0.269070000000     0.215180000000     0.0517634  
C287     C      0.359590000000     0.979980000000     0.115880000000    -0.0905913  
C288     C      0.319520000000     0.029750000000     0.296120000000     0.017512   
N12      N      0.449450000000     0.112060000000     0.199660000000     0.0235079  
Mn25     Mn     0.074320000000     0.738240000000     0.592360000000    -0.0776104  
Mn26     Mn     0.075630000000     0.655630000000     0.533780000000    -0.0575053  
O97      O      0.525290000000     0.919900000000     0.497620000000     0.0655231  
O98      O      0.524090000000     0.897570000000     0.589700000000     0.306313   
O99      O      0.263570000000     0.946990000000     0.414770000000     0.321165   
O100     O      0.291630000000     0.008450000000     0.445600000000     0.375923   
O101     O      0.379360000000     0.047180000000     0.629430000000    -0.0779165  
O102     O      0.391740000000     0.002120000000     0.667890000000     0.730787   
O103     O      0.132440000000     0.704280000000     0.510380000000     0.930766   
O104     O      0.129890000000     0.742570000000     0.583650000000    -0.324697   
C289     C      0.146700000000     0.735160000000     0.542670000000    -0.323939   
C290     C      0.188600000000     0.766140000000     0.526330000000    -0.323727   
C291     C      0.207340000000     0.763160000000     0.473640000000    -0.413447   
H181     H      0.194100000000     0.741900000000     0.447500000000    -0.384633   
C292     C      0.245710000000     0.792710000000     0.462340000000    -0.402      
H182     H      0.258200000000     0.791100000000     0.427800000000    -0.375303   
C293     C      0.266100000000     0.824280000000     0.499850000000    -0.40416    
C294     C      0.247310000000     0.826580000000     0.549370000000     0.394159   
H183     H      0.260900000000     0.847900000000     0.575200000000    -0.16816    
C295     C      0.208530000000     0.798370000000     0.563190000000     0.110697   
H184     H      0.196200000000     0.801300000000     0.597000000000     0.00572167 
C296     C      0.309030000000     0.855630000000     0.486490000000    -0.210545   
H185     H      0.309300000000     0.869800000000     0.450600000000     0.101259   
H186     H      0.323700000000     0.842200000000     0.477700000000     0.172152   
C297     C      0.346140000000     0.872680000000     0.579630000000    -0.211561   
H187     H      0.344900000000     0.885500000000     0.616100000000     0.110461   
H188     H      0.329600000000     0.844400000000     0.585700000000     0.113611   
C298     C      0.387620000000     0.881520000000     0.571910000000    -0.003495   
C299     C      0.406890000000     0.873140000000     0.614640000000    -0.191062   
H189     H      0.394200000000     0.862300000000     0.650800000000     0.0888874  
C300     C      0.445230000000     0.880410000000     0.605780000000     0.0899241  
H190     H      0.457200000000     0.873500000000     0.635800000000    -0.182306   
C301     C      0.465180000000     0.896750000000     0.556110000000     0.0791655  
C302     C      0.447810000000     0.906630000000     0.510500000000     0.0876618  
H191     H      0.461400000000     0.918200000000     0.475100000000     0.14991    
C303     C      0.409190000000     0.898570000000     0.519670000000    -0.196093   
H192     H      0.397000000000     0.904900000000     0.489200000000     0.0915754  
C304     C      0.330010000000     0.920760000000     0.534370000000     0.0905762  
C305     C      0.352370000000     0.949090000000     0.577330000000     0.0132195  
H193     H      0.367000000000     0.943700000000     0.604900000000    -0.128041   
C306     C      0.353510000000     0.984730000000     0.580100000000     0.0762492  
C307     C      0.332350000000     0.993280000000     0.537360000000     0.0159617  
H194     H      0.333500000000     0.017700000000     0.537500000000    -0.175518   
C308     C      0.310090000000     0.965200000000     0.495550000000     0.0976644  
C309     C      0.308300000000     0.929330000000     0.494300000000     0.0572087  
H195     H      0.292300000000     0.910500000000     0.466200000000    -0.0473022  
C310     C      0.507770000000     0.905370000000     0.548510000000     0.0517688  
C311     C      0.287050000000     0.973740000000     0.449210000000    -0.0907237  
C312     C      0.376890000000     0.013810000000     0.629450000000     0.0179471  
N13      N      0.329270000000     0.883880000000     0.532990000000     0.0232717  
Mn27     Mn     0.740990000000     0.071570000000     0.925690000000    -0.077794   
Mn28     Mn     0.742290000000     0.988970000000     0.867120000000    -0.0573908  
O105     O      0.191960000000     0.253230000000     0.830950000000     0.0654892  
O106     O      0.190760000000     0.230900000000     0.923030000000     0.306314   
O107     O      0.930240000000     0.280320000000     0.748100000000     0.32133    
O108     O      0.958300000000     0.341780000000     0.778930000000     0.375911   
O109     O      0.046030000000     0.380510000000     0.962760000000    -0.0778462  
O110     O      0.058410000000     0.335450000000     0.001220000000     0.730786   
O111     O      0.799110000000     0.037610000000     0.843710000000     0.930987   
O112     O      0.796560000000     0.075900000000     0.916980000000    -0.324637   
C313     C      0.813370000000     0.068490000000     0.876000000000    -0.323883   
C314     C      0.855270000000     0.099470000000     0.859660000000    -0.323774   
C315     C      0.874010000000     0.096490000000     0.806970000000    -0.413419   
H196     H      0.860770000000     0.075230000000     0.780830000000    -0.384601   
C316     C      0.912380000000     0.126040000000     0.795670000000    -0.40199    
H197     H      0.924870000000     0.124430000000     0.761130000000    -0.37539    
C317     C      0.932770000000     0.157610000000     0.833180000000    -0.404193   
C318     C      0.913980000000     0.159910000000     0.882700000000     0.394205   
H198     H      0.927570000000     0.181230000000     0.908530000000    -0.16818    
C319     C      0.875200000000     0.131700000000     0.896520000000     0.110698   
H199     H      0.862870000000     0.134630000000     0.930330000000     0.0057058  
C320     C      0.975700000000     0.188960000000     0.819820000000    -0.210543   
H200     H      0.975970000000     0.203130000000     0.783930000000     0.101244   
H201     H      0.990370000000     0.175530000000     0.811030000000     0.172133   
C321     C      0.012810000000     0.206010000000     0.912960000000    -0.211554   
H202     H      0.011570000000     0.218830000000     0.949430000000     0.110453   
H203     H      0.996270000000     0.177730000000     0.919030000000     0.113612   
C322     C      0.054290000000     0.214850000000     0.905240000000    -0.00349746 
C323     C      0.073560000000     0.206470000000     0.947970000000    -0.191024   
H204     H      0.060870000000     0.195630000000     0.984130000000     0.0888654  
C324     C      0.111900000000     0.213740000000     0.939110000000     0.08989    
H205     H      0.123870000000     0.206830000000     0.969130000000    -0.182053   
C325     C      0.131850000000     0.230080000000     0.889440000000     0.0791075  
C326     C      0.114480000000     0.239960000000     0.843830000000     0.0875397  
H206     H      0.128070000000     0.251530000000     0.808430000000     0.149809   
C327     C      0.075860000000     0.231900000000     0.853000000000    -0.196009   
H207     H      0.063670000000     0.238230000000     0.822530000000     0.0915524  
C328     C      0.996680000000     0.254090000000     0.867700000000     0.0905191  
C329     C      0.019040000000     0.282420000000     0.910660000000     0.0132386  
H208     H      0.033670000000     0.277030000000     0.938230000000    -0.128007   
C330     C      0.020180000000     0.318060000000     0.913430000000     0.0761999  
C331     C      0.999020000000     0.326610000000     0.870690000000     0.0159805  
H209     H      0.000170000000     0.351030000000     0.870830000000    -0.175443   
C332     C      0.976760000000     0.298530000000     0.828880000000     0.0976519  
C333     C      0.974970000000     0.262660000000     0.827630000000     0.0571857  
H210     H      0.958970000000     0.243830000000     0.799530000000    -0.0472912  
C334     C      0.174440000000     0.238700000000     0.881840000000     0.0517692  
C335     C      0.953720000000     0.307070000000     0.782540000000    -0.09058    
C336     C      0.043560000000     0.347140000000     0.962780000000     0.0176625  
N14      N      0.995940000000     0.217210000000     0.866320000000     0.0234221  
Mn29     Mn     0.407650000000     0.404900000000     0.259030000000    -0.0776811  
Mn30     Mn     0.408960000000     0.322300000000     0.200450000000    -0.0574558  
O113     O      0.858620000000     0.586570000000     0.164290000000     0.065509   
O114     O      0.857420000000     0.564240000000     0.256370000000     0.306312   
O115     O      0.596900000000     0.613660000000     0.081440000000     0.321271   
O116     O      0.624960000000     0.675120000000     0.112270000000     0.375881   
O117     O      0.712690000000     0.713850000000     0.296100000000    -0.0779117  
O118     O      0.725070000000     0.668790000000     0.334560000000     0.730678   
O119     O      0.465770000000     0.370950000000     0.177050000000     0.930869   
O120     O      0.463220000000     0.409240000000     0.250320000000    -0.324659   
C337     C      0.480030000000     0.401830000000     0.209340000000    -0.323872   
C338     C      0.521930000000     0.432810000000     0.193000000000    -0.323751   
C339     C      0.540670000000     0.429830000000     0.140310000000    -0.413371   
H211     H      0.527430000000     0.408570000000     0.114170000000    -0.38461    
C340     C      0.579040000000     0.459380000000     0.129010000000    -0.401989   
H212     H      0.591530000000     0.457770000000     0.094470000000    -0.3754     
C341     C      0.599430000000     0.490950000000     0.166520000000    -0.404166   
C342     C      0.580640000000     0.493250000000     0.216040000000     0.394186   
H213     H      0.594230000000     0.514570000000     0.241870000000    -0.168171   
C343     C      0.541860000000     0.465040000000     0.229860000000     0.110692   
H214     H      0.529530000000     0.467970000000     0.263670000000     0.00570852 
C344     C      0.642360000000     0.522300000000     0.153160000000    -0.210539   
H215     H      0.642630000000     0.536470000000     0.117270000000     0.101243   
H216     H      0.657030000000     0.508870000000     0.144370000000     0.17213    
C345     C      0.679470000000     0.539350000000     0.246300000000    -0.21155    
H217     H      0.678230000000     0.552170000000     0.282770000000     0.11045    
H218     H      0.662930000000     0.511070000000     0.252370000000     0.113605   
C346     C      0.720950000000     0.548190000000     0.238580000000    -0.00349734 
C347     C      0.740220000000     0.539810000000     0.281310000000    -0.191022   
H219     H      0.727530000000     0.528970000000     0.317470000000     0.088866   
C348     C      0.778560000000     0.547080000000     0.272450000000     0.0898906  
H220     H      0.790530000000     0.540170000000     0.302470000000    -0.182053   
C349     C      0.798510000000     0.563420000000     0.222780000000     0.0791093  
C350     C      0.781140000000     0.573300000000     0.177170000000     0.0875404  
H221     H      0.794730000000     0.584870000000     0.141770000000     0.149811   
C351     C      0.742520000000     0.565240000000     0.186340000000    -0.196006   
H222     H      0.730330000000     0.571570000000     0.155870000000     0.0915545  
C352     C      0.663340000000     0.587430000000     0.201040000000     0.0905187  
C353     C      0.685700000000     0.615760000000     0.244000000000     0.0132409  
H223     H      0.700330000000     0.610370000000     0.271570000000    -0.128002   
C354     C      0.686840000000     0.651400000000     0.246770000000     0.0761995  
C355     C      0.665680000000     0.659950000000     0.204030000000     0.0159816  
H224     H      0.666830000000     0.684370000000     0.204170000000    -0.175442   
C356     C      0.643420000000     0.631870000000     0.162220000000     0.0976526  
C357     C      0.641630000000     0.596000000000     0.160970000000     0.0571925  
H225     H      0.625630000000     0.577170000000     0.132870000000    -0.0473004  
C358     C      0.841100000000     0.572040000000     0.215180000000     0.0517767  
C359     C      0.620380000000     0.640410000000     0.115880000000    -0.0905714  
C360     C      0.710220000000     0.680480000000     0.296120000000     0.0176514  
N15      N      0.662600000000     0.550550000000     0.199660000000     0.023429   
Mn31     Mn     0.663920000000     0.925680000000     0.592360000000    -0.0776673  
Mn32     Mn     0.580010000000     0.924370000000     0.533780000000    -0.0574649  
O121     O      0.394610000000     0.474710000000     0.497620000000     0.0655122  
O122     O      0.373480000000     0.475910000000     0.589700000000     0.306309   
O123     O      0.683420000000     0.736430000000     0.414770000000     0.321253   
O124     O      0.716820000000     0.708370000000     0.445600000000     0.375873   
O125     O      0.667820000000     0.620640000000     0.629430000000    -0.0779126  
O126     O      0.610380000000     0.608260000000     0.667890000000     0.730714   
O127     O      0.571840000000     0.867560000000     0.510380000000     0.930932   
O128     O      0.612680000000     0.870110000000     0.583650000000    -0.324658   
C361     C      0.588460000000     0.853300000000     0.542670000000    -0.323961   
C362     C      0.577540000000     0.811400000000     0.526330000000    -0.323773   
C363     C      0.555820000000     0.792660000000     0.473640000000    -0.413487   
H226     H      0.547800000000     0.805900000000     0.447500000000    -0.384624   
C364     C      0.547000000000     0.754290000000     0.462340000000    -0.401988   
H227     H      0.532900000000     0.741800000000     0.427800000000    -0.375296   
C365     C      0.558180000000     0.733900000000     0.499850000000    -0.404148   
C366     C      0.579270000000     0.752690000000     0.549370000000     0.394162   
H228     H      0.587000000000     0.739100000000     0.575200000000    -0.168172   
C367     C      0.589840000000     0.791470000000     0.563190000000     0.110699   
H229     H      0.605100000000     0.803800000000     0.597000000000     0.00570664 
C368     C      0.546600000000     0.690970000000     0.486490000000    -0.210551   
H230     H      0.560500000000     0.690700000000     0.450600000000     0.101252   
H231     H      0.518500000000     0.676300000000     0.477700000000     0.172151   
C369     C      0.526540000000     0.653860000000     0.579630000000    -0.211565   
H232     H      0.540600000000     0.655100000000     0.616100000000     0.110462   
H233     H      0.514800000000     0.670400000000     0.585700000000     0.113615   
C370     C      0.493900000000     0.612380000000     0.571910000000    -0.00349891 
C371     C      0.466250000000     0.593110000000     0.614640000000    -0.191058   
H234     H      0.468100000000     0.605800000000     0.650800000000     0.0888848  
C372     C      0.435180000000     0.554770000000     0.605780000000     0.089917   
H235     H      0.416300000000     0.542800000000     0.635800000000    -0.1823     
C373     C      0.431570000000     0.534820000000     0.556110000000     0.0791605  
C374     C      0.458820000000     0.552190000000     0.510500000000     0.0876534  
H236     H      0.456800000000     0.538600000000     0.475100000000     0.149908   
C375     C      0.489380000000     0.590810000000     0.519670000000    -0.196102   
H237     H      0.507900000000     0.603000000000     0.489200000000     0.0915688  
C376     C      0.590750000000     0.669990000000     0.534370000000     0.0905823  
C377     C      0.596720000000     0.647630000000     0.577330000000     0.0132059  
H238     H      0.576700000000     0.633000000000     0.604900000000    -0.128057   
C378     C      0.631220000000     0.646490000000     0.580100000000     0.0762541  
C379     C      0.660930000000     0.667650000000     0.537360000000     0.0159552  
H239     H      0.684200000000     0.666500000000     0.537500000000    -0.175524   
C380     C      0.655110000000     0.689910000000     0.495550000000     0.0976642  
C381     C      0.621030000000     0.691700000000     0.494300000000     0.057203   
H240     H      0.618200000000     0.707700000000     0.466200000000    -0.0472952  
C382     C      0.397600000000     0.492230000000     0.548510000000     0.0517627  
C383     C      0.686690000000     0.712950000000     0.449210000000    -0.0907304  
C384     C      0.636920000000     0.623110000000     0.629450000000     0.0179557  
N16      N      0.554610000000     0.670730000000     0.532990000000     0.0232641  
Mn33     Mn     0.330590000000     0.259010000000     0.925690000000    -0.0778065  
Mn34     Mn     0.246670000000     0.257710000000     0.867120000000    -0.0573828  
O129     O      0.061280000000     0.808040000000     0.830950000000     0.0654873  
O130     O      0.040150000000     0.809240000000     0.923030000000     0.306324   
O131     O      0.350090000000     0.069760000000     0.748100000000     0.321349   
O132     O      0.383490000000     0.041700000000     0.778930000000     0.375915   
O133     O      0.334490000000     0.953970000000     0.962760000000    -0.0778473  
O134     O      0.277050000000     0.941590000000     0.001220000000     0.730866   
O135     O      0.238510000000     0.200890000000     0.843710000000     0.93094    
O136     O      0.279350000000     0.203440000000     0.916980000000    -0.324655   
C385     C      0.255130000000     0.186630000000     0.876000000000    -0.323883   
C386     C      0.244210000000     0.144730000000     0.859660000000    -0.323698   
C387     C      0.222490000000     0.125990000000     0.806970000000    -0.413381   
H241     H      0.214470000000     0.139230000000     0.780830000000    -0.384678   
C388     C      0.213670000000     0.087620000000     0.795670000000    -0.402039   
H242     H      0.199570000000     0.075130000000     0.761130000000    -0.375405   
C389     C      0.224850000000     0.067230000000     0.833180000000    -0.404166   
C390     C      0.245940000000     0.086020000000     0.882700000000     0.394195   
H243     H      0.253670000000     0.072430000000     0.908530000000    -0.168172   
C391     C      0.256510000000     0.124800000000     0.896520000000     0.110697   
H244     H      0.271770000000     0.137130000000     0.930330000000     0.00570979 
C392     C      0.213270000000     0.024300000000     0.819820000000    -0.21054    
H245     H      0.227170000000     0.024030000000     0.783930000000     0.101245   
H246     H      0.185170000000     0.009630000000     0.811030000000     0.172136   
C393     C      0.193210000000     0.987190000000     0.912960000000    -0.211549   
H247     H      0.207270000000     0.988430000000     0.949430000000     0.110457   
H248     H      0.181470000000     0.003730000000     0.919030000000     0.113611   
C394     C      0.160570000000     0.945710000000     0.905240000000    -0.00349032 
C395     C      0.132920000000     0.926440000000     0.947970000000    -0.191027   
H249     H      0.134770000000     0.939130000000     0.984130000000     0.0888708  
C396     C      0.101850000000     0.888100000000     0.939110000000     0.0898917  
H250     H      0.082970000000     0.876130000000     0.969130000000    -0.182061   
C397     C      0.098240000000     0.868150000000     0.889440000000     0.0791158  
C398     C      0.125490000000     0.885520000000     0.843830000000     0.0875434  
H251     H      0.123470000000     0.871930000000     0.808430000000     0.149816   
C399     C      0.156050000000     0.924140000000     0.853000000000    -0.196012   
H252     H      0.174570000000     0.936330000000     0.822530000000     0.0915573  
C400     C      0.257420000000     0.003320000000     0.867700000000     0.0905219  
C401     C      0.263390000000     0.980960000000     0.910660000000     0.0132386  
H253     H      0.243370000000     0.966330000000     0.938230000000    -0.128006   
C402     C      0.297890000000     0.979820000000     0.913430000000     0.0762026  
C403     C      0.327600000000     0.000980000000     0.870690000000     0.0159816  
H254     H      0.350870000000     0.999830000000     0.870830000000    -0.175446   
C404     C      0.321780000000     0.023240000000     0.828880000000     0.097655   
C405     C      0.287700000000     0.025030000000     0.827630000000     0.0571725  
H255     H      0.284870000000     0.041030000000     0.799530000000    -0.0472494  
C406     C      0.064270000000     0.825560000000     0.881840000000     0.0517625  
C407     C      0.353360000000     0.046280000000     0.782540000000    -0.0906457  
C408     C      0.303590000000     0.956440000000     0.962780000000     0.0178089  
N17      N      0.221280000000     0.004060000000     0.866320000000     0.0233374  
Mn35     Mn     0.997250000000     0.592350000000     0.259030000000    -0.0776635  
Mn36     Mn     0.913340000000     0.591040000000     0.200450000000    -0.0574462  
O137     O      0.727940000000     0.141380000000     0.164290000000     0.0655188  
O138     O      0.706810000000     0.142580000000     0.256370000000     0.306309   
O139     O      0.016750000000     0.403100000000     0.081440000000     0.321207   
O140     O      0.050150000000     0.375040000000     0.112270000000     0.375991   
O141     O      0.001150000000     0.287310000000     0.296100000000    -0.0779072  
O142     O      0.943710000000     0.274930000000     0.334560000000     0          
O143     O      0.905170000000     0.534230000000     0.177050000000     0          
O144     O      0.946010000000     0.536780000000     0.250320000000     0          
C409     C      0.921790000000     0.519970000000     0.209340000000     0          
C410     C      0.910870000000     0.478070000000     0.193000000000     0          
C411     C      0.889150000000     0.459330000000     0.140310000000     0          
H256     H      0.881130000000     0.472570000000     0.114170000000     0          
C412     C      0.880330000000     0.420960000000     0.129010000000     0          
H257     H      0.866230000000     0.408470000000     0.094470000000     0          
C413     C      0.891510000000     0.400570000000     0.166520000000     0          
C414     C      0.912600000000     0.419360000000     0.216040000000     0          
H258     H      0.920330000000     0.405770000000     0.241870000000     0          
C415     C      0.923170000000     0.458140000000     0.229860000000     0          
H259     H      0.938430000000     0.470470000000     0.263670000000     0          
C416     C      0.879930000000     0.357640000000     0.153160000000     0          
H260     H      0.893830000000     0.357370000000     0.117270000000     0          
H261     H      0.851830000000     0.342970000000     0.144370000000     0          
C417     C      0.859870000000     0.320530000000     0.246300000000     0          
H262     H      0.873930000000     0.321770000000     0.282770000000     0          
H263     H      0.848130000000     0.337070000000     0.252370000000     0          
C418     C      0.827230000000     0.279050000000     0.238580000000     0          
C419     C      0.799580000000     0.259780000000     0.281310000000     0          
H264     H      0.801430000000     0.272470000000     0.317470000000     0          
C420     C      0.768510000000     0.221440000000     0.272450000000     0          
H265     H      0.749630000000     0.209470000000     0.302470000000     0          
C421     C      0.764900000000     0.201490000000     0.222780000000     0          
C422     C      0.792150000000     0.218860000000     0.177170000000     0          
H266     H      0.790130000000     0.205270000000     0.141770000000     0          
C423     C      0.822710000000     0.257480000000     0.186340000000     0          
H267     H      0.841230000000     0.269670000000     0.155870000000     0          
C424     C      0.924080000000     0.336660000000     0.201040000000     0          
C425     C      0.930050000000     0.314300000000     0.244000000000     0          
H268     H      0.910030000000     0.299670000000     0.271570000000     0          
C426     C      0.964550000000     0.313160000000     0.246770000000     0          
C427     C      0.994260000000     0.334320000000     0.204030000000     0          
H269     H      0.017530000000     0.333170000000     0.204170000000     0          
C428     C      0.988440000000     0.356580000000     0.162220000000     0          
C429     C      0.954360000000     0.358370000000     0.160970000000     0          
H270     H      0.951530000000     0.374370000000     0.132870000000     0          
C430     C      0.730930000000     0.158900000000     0.215180000000     0          
C431     C      0.020020000000     0.379620000000     0.115880000000     0          
C432     C      0.970250000000     0.289780000000     0.296120000000     0          
N18      N      0.887940000000     0.337400000000     0.199660000000     0          


