data_[CoreMOF]XADDEN_manual

_audit_creation_method RASPA-1.0
_audit_creation_date 2025-1-26
_audit_author_name ''

_cell_length_a    18.651
_cell_length_b    18.651
_cell_length_c    18.651
_cell_angle_alpha 60
_cell_angle_beta  60
_cell_angle_gamma 60
_cell_volume      36701.3

_symmetry_cell_setting          triclinic
_symmetry_space_group_name_Hall 'P 1'
_symmetry_space_group_name_H-M  'P 1'
_symmetry_Int_Tables_number     1

_symmetry_equiv_pos_as_xyz 'x,y,z'

loop_
_atom_site_label
_atom_site_type_symbol
_atom_site_fract_x
_atom_site_fract_y
_atom_site_fract_z
_atom_site_charge
Cu1      Cu     0.034930000000     0.250000000000     0.250000000000    -0.163794   
Cu1      Cu     0.034930000000     0.250000000000     0.750000000000    -0.163794   
Cu1      Cu     0.034930000000     0.750000000000     0.250000000000    -0.163794   
Cu1      Cu     0.034930000000     0.750000000000     0.750000000000    -0.163794   
Cu1      Cu     0.534930000000     0.250000000000     0.250000000000    -0.163794   
Cu1      Cu     0.534930000000     0.250000000000     0.750000000000    -0.163794   
Cu1      Cu     0.534930000000     0.750000000000     0.250000000000    -0.163794   
Cu1      Cu     0.534930000000     0.750000000000     0.750000000000    -0.163794   
Cu2      Cu     0.250000000000     0.034930000000     0.465070000000     0.421289   
Cu2      Cu     0.250000000000     0.034930000000     0.965070000000     0.421289   
Cu2      Cu     0.250000000000     0.534930000000     0.465070000000     0.421289   
Cu2      Cu     0.250000000000     0.534930000000     0.965070000000     0.421289   
Cu2      Cu     0.750000000000     0.034930000000     0.465070000000     0.421289   
Cu2      Cu     0.750000000000     0.034930000000     0.965070000000     0.421289   
Cu2      Cu     0.750000000000     0.534930000000     0.465070000000     0.421289   
Cu2      Cu     0.750000000000     0.534930000000     0.965070000000     0.421289   
Cu3      Cu     0.250000000000     0.465070000000     0.034930000000    -0.163794   
Cu3      Cu     0.250000000000     0.465070000000     0.534930000000    -0.163794   
Cu3      Cu     0.250000000000     0.965070000000     0.034930000000    -0.163794   
Cu3      Cu     0.250000000000     0.965070000000     0.534930000000    -0.163794   
Cu3      Cu     0.750000000000     0.465070000000     0.034930000000    -0.163794   
Cu3      Cu     0.750000000000     0.465070000000     0.534930000000    -0.163794   
Cu3      Cu     0.750000000000     0.965070000000     0.034930000000    -0.163794   
Cu3      Cu     0.750000000000     0.965070000000     0.534930000000    -0.163794   
Cu4      Cu     0.465070000000     0.250000000000     0.250000000000     0.421289   
Cu4      Cu     0.465070000000     0.250000000000     0.750000000000     0.421289   
Cu4      Cu     0.465070000000     0.750000000000     0.250000000000     0.421289   
Cu4      Cu     0.465070000000     0.750000000000     0.750000000000     0.421289   
Cu4      Cu     0.965070000000     0.250000000000     0.250000000000     0.421289   
Cu4      Cu     0.965070000000     0.250000000000     0.750000000000     0.421289   
Cu4      Cu     0.965070000000     0.750000000000     0.250000000000     0.421289   
Cu4      Cu     0.965070000000     0.750000000000     0.750000000000     0.421289   
Cu5      Cu     0.034930000000     0.250000000000     0.465070000000    -0.163796   
Cu5      Cu     0.034930000000     0.250000000000     0.965070000000    -0.163796   
Cu5      Cu     0.034930000000     0.750000000000     0.465070000000    -0.163796   
Cu5      Cu     0.034930000000     0.750000000000     0.965070000000    -0.163796   
Cu5      Cu     0.534930000000     0.250000000000     0.465070000000    -0.163796   
Cu5      Cu     0.534930000000     0.250000000000     0.965070000000    -0.163796   
Cu5      Cu     0.534930000000     0.750000000000     0.465070000000    -0.163796   
Cu5      Cu     0.534930000000     0.750000000000     0.965070000000    -0.163796   
Cu6      Cu     0.250000000000     0.465070000000     0.250000000000     0.421289   
Cu6      Cu     0.250000000000     0.465070000000     0.750000000000     0.421289   
Cu6      Cu     0.250000000000     0.965070000000     0.250000000000     0.421289   
Cu6      Cu     0.250000000000     0.965070000000     0.750000000000     0.421289   
Cu6      Cu     0.750000000000     0.465070000000     0.250000000000     0.421289   
Cu6      Cu     0.750000000000     0.465070000000     0.750000000000     0.421289   
Cu6      Cu     0.750000000000     0.965070000000     0.250000000000     0.421289   
Cu6      Cu     0.750000000000     0.965070000000     0.750000000000     0.421289   
Cu7      Cu     0.250000000000     0.034930000000     0.250000000000    -0.163794   
Cu7      Cu     0.250000000000     0.034930000000     0.750000000000    -0.163794   
Cu7      Cu     0.250000000000     0.534930000000     0.250000000000    -0.163794   
Cu7      Cu     0.250000000000     0.534930000000     0.750000000000    -0.163794   
Cu7      Cu     0.750000000000     0.034930000000     0.250000000000    -0.163794   
Cu7      Cu     0.750000000000     0.034930000000     0.750000000000    -0.163794   
Cu7      Cu     0.750000000000     0.534930000000     0.250000000000    -0.163794   
Cu7      Cu     0.750000000000     0.534930000000     0.750000000000    -0.163794   
Cu8      Cu     0.465070000000     0.250000000000     0.034930000000     0.421289   
Cu8      Cu     0.465070000000     0.250000000000     0.534930000000     0.421289   
Cu8      Cu     0.465070000000     0.750000000000     0.034930000000     0.421289   
Cu8      Cu     0.465070000000     0.750000000000     0.534930000000     0.421289   
Cu8      Cu     0.965070000000     0.250000000000     0.034930000000     0.421289   
Cu8      Cu     0.965070000000     0.250000000000     0.534930000000     0.421289   
Cu8      Cu     0.965070000000     0.750000000000     0.034930000000     0.421289   
Cu8      Cu     0.965070000000     0.750000000000     0.534930000000     0.421289   
Cu9      Cu     0.034930000000     0.465070000000     0.250000000000    -0.163796   
Cu9      Cu     0.034930000000     0.465070000000     0.750000000000    -0.163796   
Cu9      Cu     0.034930000000     0.965070000000     0.250000000000    -0.163796   
Cu9      Cu     0.034930000000     0.965070000000     0.750000000000    -0.163796   
Cu9      Cu     0.534930000000     0.465070000000     0.250000000000    -0.163796   
Cu9      Cu     0.534930000000     0.465070000000     0.750000000000    -0.163796   
Cu9      Cu     0.534930000000     0.965070000000     0.250000000000    -0.163796   
Cu9      Cu     0.534930000000     0.965070000000     0.750000000000    -0.163796   
Cu10     Cu     0.250000000000     0.250000000000     0.034930000000     0.421289   
Cu10     Cu     0.250000000000     0.250000000000     0.534930000000     0.421289   
Cu10     Cu     0.250000000000     0.750000000000     0.034930000000     0.421289   
Cu10     Cu     0.250000000000     0.750000000000     0.534930000000     0.421289   
Cu10     Cu     0.750000000000     0.250000000000     0.034930000000     0.421289   
Cu10     Cu     0.750000000000     0.250000000000     0.534930000000     0.421289   
Cu10     Cu     0.750000000000     0.750000000000     0.034930000000     0.421289   
Cu10     Cu     0.750000000000     0.750000000000     0.534930000000     0.421289   
Cu11     Cu     0.250000000000     0.250000000000     0.465070000000    -0.163794   
Cu11     Cu     0.250000000000     0.250000000000     0.965070000000    -0.163794   
Cu11     Cu     0.250000000000     0.750000000000     0.465070000000    -0.163794   
Cu11     Cu     0.250000000000     0.750000000000     0.965070000000    -0.163794   
Cu11     Cu     0.750000000000     0.250000000000     0.465070000000    -0.163794   
Cu11     Cu     0.750000000000     0.250000000000     0.965070000000    -0.163794   
Cu11     Cu     0.750000000000     0.750000000000     0.465070000000    -0.163794   
Cu11     Cu     0.750000000000     0.750000000000     0.965070000000    -0.163794   
Cu12     Cu     0.465070000000     0.034930000000     0.250000000000     0.421289   
Cu12     Cu     0.465070000000     0.034930000000     0.750000000000     0.421289   
Cu12     Cu     0.465070000000     0.534930000000     0.250000000000     0.421289   
Cu12     Cu     0.465070000000     0.534930000000     0.750000000000     0.421289   
Cu12     Cu     0.965070000000     0.034930000000     0.250000000000     0.421289   
Cu12     Cu     0.965070000000     0.034930000000     0.750000000000     0.421289   
Cu12     Cu     0.965070000000     0.534930000000     0.250000000000     0.421289   
Cu12     Cu     0.965070000000     0.534930000000     0.750000000000     0.421289   
H1       H      0.386300000000     0.233700000000     0.386300000000    -0.163796   
H1       H      0.386300000000     0.233700000000     0.886300000000    -0.163796   
H1       H      0.386300000000     0.733700000000     0.386300000000    -0.163796   
H1       H      0.386300000000     0.733700000000     0.886300000000    -0.163796   
H1       H      0.886300000000     0.233700000000     0.386300000000    -0.163796   
H1       H      0.886300000000     0.233700000000     0.886300000000    -0.163796   
H1       H      0.886300000000     0.733700000000     0.386300000000    -0.163796   
H1       H      0.886300000000     0.733700000000     0.886300000000    -0.163796   
H2       H      0.233700000000     0.386300000000     0.493700000000     0.421289   
H2       H      0.233700000000     0.386300000000     0.993700000000     0.421289   
H2       H      0.233700000000     0.886300000000     0.493700000000     0.421289   
H2       H      0.233700000000     0.886300000000     0.993700000000     0.421289   
H2       H      0.733700000000     0.386300000000     0.493700000000     0.421289   
H2       H      0.733700000000     0.386300000000     0.993700000000     0.421289   
H2       H      0.733700000000     0.886300000000     0.493700000000     0.421289   
H2       H      0.733700000000     0.886300000000     0.993700000000     0.421289   
H3       H      0.386300000000     0.493700000000     0.386300000000    -0.163796   
H3       H      0.386300000000     0.493700000000     0.886300000000    -0.163796   
H3       H      0.386300000000     0.993700000000     0.386300000000    -0.163796   
H3       H      0.386300000000     0.993700000000     0.886300000000    -0.163796   
H3       H      0.886300000000     0.493700000000     0.386300000000    -0.163796   
H3       H      0.886300000000     0.493700000000     0.886300000000    -0.163796   
H3       H      0.886300000000     0.993700000000     0.386300000000    -0.163796   
H3       H      0.886300000000     0.993700000000     0.886300000000    -0.163796   
H4       H      0.493700000000     0.386300000000     0.233700000000     0.421289   
H4       H      0.493700000000     0.386300000000     0.733700000000     0.421289   
H4       H      0.493700000000     0.886300000000     0.233700000000     0.421289   
H4       H      0.493700000000     0.886300000000     0.733700000000     0.421289   
H4       H      0.993700000000     0.386300000000     0.233700000000     0.421289   
H4       H      0.993700000000     0.386300000000     0.733700000000     0.421289   
H4       H      0.993700000000     0.886300000000     0.233700000000     0.421289   
H4       H      0.993700000000     0.886300000000     0.733700000000     0.421289   
H5       H      0.386300000000     0.386300000000     0.493700000000    -0.163794   
H5       H      0.386300000000     0.386300000000     0.993700000000    -0.163794   
H5       H      0.386300000000     0.886300000000     0.493700000000    -0.163794   
H5       H      0.386300000000     0.886300000000     0.993700000000    -0.163794   
H5       H      0.886300000000     0.386300000000     0.493700000000    -0.163794   
H5       H      0.886300000000     0.386300000000     0.993700000000    -0.163794   
H5       H      0.886300000000     0.886300000000     0.493700000000    -0.163794   
H5       H      0.886300000000     0.886300000000     0.993700000000    -0.163794   
H6       H      0.233700000000     0.493700000000     0.386300000000     0.421266   
H6       H      0.233700000000     0.493700000000     0.886300000000     0.421266   
H6       H      0.233700000000     0.993700000000     0.386300000000     0.421266   
H6       H      0.233700000000     0.993700000000     0.886300000000     0.421266   
H6       H      0.733700000000     0.493700000000     0.386300000000     0.421266   
H6       H      0.733700000000     0.493700000000     0.886300000000     0.421266   
H6       H      0.733700000000     0.993700000000     0.386300000000     0.421266   
H6       H      0.733700000000     0.993700000000     0.886300000000     0.421266   
H7       H      0.386300000000     0.386300000000     0.233700000000    -0.163796   
H7       H      0.386300000000     0.386300000000     0.733700000000    -0.163796   
H7       H      0.386300000000     0.886300000000     0.233700000000    -0.163796   
H7       H      0.386300000000     0.886300000000     0.733700000000    -0.163796   
H7       H      0.886300000000     0.386300000000     0.233700000000    -0.163796   
H7       H      0.886300000000     0.386300000000     0.733700000000    -0.163796   
H7       H      0.886300000000     0.886300000000     0.233700000000    -0.163796   
H7       H      0.886300000000     0.886300000000     0.733700000000    -0.163796   
H8       H      0.493700000000     0.233700000000     0.386300000000     0.421259   
H8       H      0.493700000000     0.233700000000     0.886300000000     0.421259   
H8       H      0.493700000000     0.733700000000     0.386300000000     0.421259   
H8       H      0.493700000000     0.733700000000     0.886300000000     0.421259   
H8       H      0.993700000000     0.233700000000     0.386300000000     0.421259   
H8       H      0.993700000000     0.233700000000     0.886300000000     0.421259   
H8       H      0.993700000000     0.733700000000     0.386300000000     0.421259   
H8       H      0.993700000000     0.733700000000     0.886300000000     0.421259   
H9       H      0.386300000000     0.493700000000     0.233700000000    -0.163795   
H9       H      0.386300000000     0.493700000000     0.733700000000    -0.163795   
H9       H      0.386300000000     0.993700000000     0.233700000000    -0.163795   
H9       H      0.386300000000     0.993700000000     0.733700000000    -0.163795   
H9       H      0.886300000000     0.493700000000     0.233700000000    -0.163795   
H9       H      0.886300000000     0.493700000000     0.733700000000    -0.163795   
H9       H      0.886300000000     0.993700000000     0.233700000000    -0.163795   
H9       H      0.886300000000     0.993700000000     0.733700000000    -0.163795   
H10      H      0.233700000000     0.386300000000     0.386300000000     0.421248   
H10      H      0.233700000000     0.386300000000     0.886300000000     0.421248   
H10      H      0.233700000000     0.886300000000     0.386300000000     0.421248   
H10      H      0.233700000000     0.886300000000     0.886300000000     0.421248   
H10      H      0.733700000000     0.386300000000     0.386300000000     0.421248   
H10      H      0.733700000000     0.386300000000     0.886300000000     0.421248   
H10      H      0.733700000000     0.886300000000     0.386300000000     0.421248   
H10      H      0.733700000000     0.886300000000     0.886300000000     0.421248   
H11      H      0.386300000000     0.233700000000     0.493700000000    -0.163789   
H11      H      0.386300000000     0.233700000000     0.993700000000    -0.163789   
H11      H      0.386300000000     0.733700000000     0.493700000000    -0.163789   
H11      H      0.386300000000     0.733700000000     0.993700000000    -0.163789   
H11      H      0.886300000000     0.233700000000     0.493700000000    -0.163789   
H11      H      0.886300000000     0.233700000000     0.993700000000    -0.163789   
H11      H      0.886300000000     0.733700000000     0.493700000000    -0.163789   
H11      H      0.886300000000     0.733700000000     0.993700000000    -0.163789   
H12      H      0.493700000000     0.386300000000     0.386300000000     0.421257   
H12      H      0.493700000000     0.386300000000     0.886300000000     0.421257   
H12      H      0.493700000000     0.886300000000     0.386300000000     0.421257   
H12      H      0.493700000000     0.886300000000     0.886300000000     0.421257   
H12      H      0.993700000000     0.386300000000     0.386300000000     0.421257   
H12      H      0.993700000000     0.386300000000     0.886300000000     0.421257   
H12      H      0.993700000000     0.886300000000     0.386300000000     0.421257   
H12      H      0.993700000000     0.886300000000     0.886300000000     0.421257   
H13      H      0.266300000000     0.113700000000     0.113700000000    -0.163792   
H13      H      0.266300000000     0.113700000000     0.613700000000    -0.163792   
H13      H      0.266300000000     0.613700000000     0.113700000000    -0.163792   
H13      H      0.266300000000     0.613700000000     0.613700000000    -0.163792   
H13      H      0.766300000000     0.113700000000     0.113700000000    -0.163792   
H13      H      0.766300000000     0.113700000000     0.613700000000    -0.163792   
H13      H      0.766300000000     0.613700000000     0.113700000000    -0.163792   
H13      H      0.766300000000     0.613700000000     0.613700000000    -0.163792   
H14      H      0.113700000000     0.266300000000     0.006300000000     0.421248   
H14      H      0.113700000000     0.266300000000     0.506300000000     0.421248   
H14      H      0.113700000000     0.766300000000     0.006300000000     0.421248   
H14      H      0.113700000000     0.766300000000     0.506300000000     0.421248   
H14      H      0.613700000000     0.266300000000     0.006300000000     0.421248   
H14      H      0.613700000000     0.266300000000     0.506300000000     0.421248   
H14      H      0.613700000000     0.766300000000     0.006300000000     0.421248   
H14      H      0.613700000000     0.766300000000     0.506300000000     0.421248   
H15      H      0.006300000000     0.113700000000     0.113700000000    -0.163789   
H15      H      0.006300000000     0.113700000000     0.613700000000    -0.163789   
H15      H      0.006300000000     0.613700000000     0.113700000000    -0.163789   
H15      H      0.006300000000     0.613700000000     0.613700000000    -0.163789   
H15      H      0.506300000000     0.113700000000     0.113700000000    -0.163789   
H15      H      0.506300000000     0.113700000000     0.613700000000    -0.163789   
H15      H      0.506300000000     0.613700000000     0.113700000000    -0.163789   
H15      H      0.506300000000     0.613700000000     0.613700000000    -0.163789   
H16      H      0.113700000000     0.006300000000     0.266300000000     0.421266   
H16      H      0.113700000000     0.006300000000     0.766300000000     0.421266   
H16      H      0.113700000000     0.506300000000     0.266300000000     0.421266   
H16      H      0.113700000000     0.506300000000     0.766300000000     0.421266   
H16      H      0.613700000000     0.006300000000     0.266300000000     0.421266   
H16      H      0.613700000000     0.006300000000     0.766300000000     0.421266   
H16      H      0.613700000000     0.506300000000     0.266300000000     0.421266   
H16      H      0.613700000000     0.506300000000     0.766300000000     0.421266   
H17      H      0.113700000000     0.113700000000     0.006300000000    -0.163796   
H17      H      0.113700000000     0.113700000000     0.506300000000    -0.163796   
H17      H      0.113700000000     0.613700000000     0.006300000000    -0.163796   
H17      H      0.113700000000     0.613700000000     0.506300000000    -0.163796   
H17      H      0.613700000000     0.113700000000     0.006300000000    -0.163796   
H17      H      0.613700000000     0.113700000000     0.506300000000    -0.163796   
H17      H      0.613700000000     0.613700000000     0.006300000000    -0.163796   
H17      H      0.613700000000     0.613700000000     0.506300000000    -0.163796   
H18      H      0.006300000000     0.266300000000     0.113700000000     0.421257   
H18      H      0.006300000000     0.266300000000     0.613700000000     0.421257   
H18      H      0.006300000000     0.766300000000     0.113700000000     0.421257   
H18      H      0.006300000000     0.766300000000     0.613700000000     0.421257   
H18      H      0.506300000000     0.266300000000     0.113700000000     0.421257   
H18      H      0.506300000000     0.266300000000     0.613700000000     0.421257   
H18      H      0.506300000000     0.766300000000     0.113700000000     0.421257   
H18      H      0.506300000000     0.766300000000     0.613700000000     0.421257   
H19      H      0.113700000000     0.113700000000     0.266300000000    -0.163792   
H19      H      0.113700000000     0.113700000000     0.766300000000    -0.163792   
H19      H      0.113700000000     0.613700000000     0.266300000000    -0.163792   
H19      H      0.113700000000     0.613700000000     0.766300000000    -0.163792   
H19      H      0.613700000000     0.113700000000     0.266300000000    -0.163792   
H19      H      0.613700000000     0.113700000000     0.766300000000    -0.163792   
H19      H      0.613700000000     0.613700000000     0.266300000000    -0.163792   
H19      H      0.613700000000     0.613700000000     0.766300000000    -0.163792   
H20      H      0.266300000000     0.006300000000     0.113700000000     0.421259   
H20      H      0.266300000000     0.006300000000     0.613700000000     0.421259   
H20      H      0.266300000000     0.506300000000     0.113700000000     0.421259   
H20      H      0.266300000000     0.506300000000     0.613700000000     0.421259   
H20      H      0.766300000000     0.006300000000     0.113700000000     0.421259   
H20      H      0.766300000000     0.006300000000     0.613700000000     0.421259   
H20      H      0.766300000000     0.506300000000     0.113700000000     0.421259   
H20      H      0.766300000000     0.506300000000     0.613700000000     0.421259   
H21      H      0.006300000000     0.113700000000     0.266300000000    -0.163795   
H21      H      0.006300000000     0.113700000000     0.766300000000    -0.163795   
H21      H      0.006300000000     0.613700000000     0.266300000000    -0.163795   
H21      H      0.006300000000     0.613700000000     0.766300000000    -0.163795   
H21      H      0.506300000000     0.113700000000     0.266300000000    -0.163795   
H21      H      0.506300000000     0.113700000000     0.766300000000    -0.163795   
H21      H      0.506300000000     0.613700000000     0.266300000000    -0.163795   
H21      H      0.506300000000     0.613700000000     0.766300000000    -0.163795   
H22      H      0.113700000000     0.266300000000     0.113700000000     0.421203   
H22      H      0.113700000000     0.266300000000     0.613700000000     0.421203   
H22      H      0.113700000000     0.766300000000     0.113700000000     0.421203   
H22      H      0.113700000000     0.766300000000     0.613700000000     0.421203   
H22      H      0.613700000000     0.266300000000     0.113700000000     0.421203   
H22      H      0.613700000000     0.266300000000     0.613700000000     0.421203   
H22      H      0.613700000000     0.766300000000     0.113700000000     0.421203   
H22      H      0.613700000000     0.766300000000     0.613700000000     0.421203   
H23      H      0.266300000000     0.113700000000     0.006300000000    -0.163786   
H23      H      0.266300000000     0.113700000000     0.506300000000    -0.163786   
H23      H      0.266300000000     0.613700000000     0.006300000000    -0.163786   
H23      H      0.266300000000     0.613700000000     0.506300000000    -0.163786   
H23      H      0.766300000000     0.113700000000     0.006300000000    -0.163786   
H23      H      0.766300000000     0.113700000000     0.506300000000    -0.163786   
H23      H      0.766300000000     0.613700000000     0.006300000000    -0.163786   
H23      H      0.766300000000     0.613700000000     0.506300000000    -0.163786   
H24      H      0.113700000000     0.006300000000     0.113700000000     0.421284   
H24      H      0.113700000000     0.006300000000     0.613700000000     0.421284   
H24      H      0.113700000000     0.506300000000     0.113700000000     0.421284   
H24      H      0.113700000000     0.506300000000     0.613700000000     0.421284   
H24      H      0.613700000000     0.006300000000     0.113700000000     0.421284   
H24      H      0.613700000000     0.006300000000     0.613700000000     0.421284   
H24      H      0.613700000000     0.506300000000     0.113700000000     0.421284   
H24      H      0.613700000000     0.506300000000     0.613700000000     0.421284   
C1       C      0.465450000000     0.237130000000     0.331970000000    -0.163794   
C1       C      0.465450000000     0.237130000000     0.831970000000    -0.163794   
C1       C      0.465450000000     0.737130000000     0.331970000000    -0.163794   
C1       C      0.465450000000     0.737130000000     0.831970000000    -0.163794   
C1       C      0.965450000000     0.237130000000     0.331970000000    -0.163794   
C1       C      0.965450000000     0.237130000000     0.831970000000    -0.163794   
C1       C      0.965450000000     0.737130000000     0.331970000000    -0.163794   
C1       C      0.965450000000     0.737130000000     0.831970000000    -0.163794   
C2       C      0.443700000000     0.233560000000     0.379040000000     0.421284   
C2       C      0.443700000000     0.233560000000     0.879040000000     0.421284   
C2       C      0.443700000000     0.733560000000     0.379040000000     0.421284   
C2       C      0.443700000000     0.733560000000     0.879040000000     0.421284   
C2       C      0.943700000000     0.233560000000     0.379040000000     0.421284   
C2       C      0.943700000000     0.233560000000     0.879040000000     0.421284   
C2       C      0.943700000000     0.733560000000     0.379040000000     0.421284   
C2       C      0.943700000000     0.733560000000     0.879040000000     0.421284   
C3       C      0.237130000000     0.465450000000     0.465450000000    -0.163794   
C3       C      0.237130000000     0.465450000000     0.965450000000    -0.163794   
C3       C      0.237130000000     0.965450000000     0.465450000000    -0.163794   
C3       C      0.237130000000     0.965450000000     0.965450000000    -0.163794   
C3       C      0.737130000000     0.465450000000     0.465450000000    -0.163794   
C3       C      0.737130000000     0.465450000000     0.965450000000    -0.163794   
C3       C      0.737130000000     0.965450000000     0.465450000000    -0.163794   
C3       C      0.737130000000     0.965450000000     0.965450000000    -0.163794   
C4       C      0.233560000000     0.443700000000     0.443700000000     0.421201   
C4       C      0.233560000000     0.443700000000     0.943700000000     0.421201   
C4       C      0.233560000000     0.943700000000     0.443700000000     0.421201   
C4       C      0.233560000000     0.943700000000     0.943700000000     0.421201   
C4       C      0.733560000000     0.443700000000     0.443700000000     0.421201   
C4       C      0.733560000000     0.443700000000     0.943700000000     0.421201   
C4       C      0.733560000000     0.943700000000     0.443700000000     0.421201   
C4       C      0.733560000000     0.943700000000     0.943700000000     0.421201   
C5       C      0.331970000000     0.465450000000     0.465450000000    -0.163784   
C5       C      0.331970000000     0.465450000000     0.965450000000    -0.163784   
C5       C      0.331970000000     0.965450000000     0.465450000000    -0.163784   
C5       C      0.331970000000     0.965450000000     0.965450000000    -0.163784   
C5       C      0.831970000000     0.465450000000     0.465450000000    -0.163784   
C5       C      0.831970000000     0.465450000000     0.965450000000    -0.163784   
C5       C      0.831970000000     0.965450000000     0.465450000000    -0.163784   
C5       C      0.831970000000     0.965450000000     0.965450000000    -0.163784   
C6       C      0.379040000000     0.443700000000     0.443700000000     0.1041     
C6       C      0.379040000000     0.443700000000     0.943700000000     0.1041     
C6       C      0.379040000000     0.943700000000     0.443700000000     0.1041     
C6       C      0.379040000000     0.943700000000     0.943700000000     0.1041     
C6       C      0.879040000000     0.443700000000     0.443700000000     0.1041     
C6       C      0.879040000000     0.443700000000     0.943700000000     0.1041     
C6       C      0.879040000000     0.943700000000     0.443700000000     0.1041     
C6       C      0.879040000000     0.943700000000     0.943700000000     0.1041     
C7       C      0.465450000000     0.331970000000     0.237130000000     0.1041     
C7       C      0.465450000000     0.331970000000     0.737130000000     0.1041     
C7       C      0.465450000000     0.831970000000     0.237130000000     0.1041     
C7       C      0.465450000000     0.831970000000     0.737130000000     0.1041     
C7       C      0.965450000000     0.331970000000     0.237130000000     0.1041     
C7       C      0.965450000000     0.331970000000     0.737130000000     0.1041     
C7       C      0.965450000000     0.831970000000     0.237130000000     0.1041     
C7       C      0.965450000000     0.831970000000     0.737130000000     0.1041     
C8       C      0.443700000000     0.379040000000     0.233560000000     0.1041     
C8       C      0.443700000000     0.379040000000     0.733560000000     0.1041     
C8       C      0.443700000000     0.879040000000     0.233560000000     0.1041     
C8       C      0.443700000000     0.879040000000     0.733560000000     0.1041     
C8       C      0.943700000000     0.379040000000     0.233560000000     0.1041     
C8       C      0.943700000000     0.379040000000     0.733560000000     0.1041     
C8       C      0.943700000000     0.879040000000     0.233560000000     0.1041     
C8       C      0.943700000000     0.879040000000     0.733560000000     0.1041     
C9       C      0.465450000000     0.331970000000     0.465450000000     0.1041     
C9       C      0.465450000000     0.331970000000     0.965450000000     0.1041     
C9       C      0.465450000000     0.831970000000     0.465450000000     0.1041     
C9       C      0.465450000000     0.831970000000     0.965450000000     0.1041     
C9       C      0.965450000000     0.331970000000     0.465450000000     0.1041     
C9       C      0.965450000000     0.331970000000     0.965450000000     0.1041     
C9       C      0.965450000000     0.831970000000     0.465450000000     0.1041     
C9       C      0.965450000000     0.831970000000     0.965450000000     0.1041     
C10      C      0.443700000000     0.379040000000     0.443700000000     0.1041     
C10      C      0.443700000000     0.379040000000     0.943700000000     0.1041     
C10      C      0.443700000000     0.879040000000     0.443700000000     0.1041     
C10      C      0.443700000000     0.879040000000     0.943700000000     0.1041     
C10      C      0.943700000000     0.379040000000     0.443700000000     0.1041     
C10      C      0.943700000000     0.379040000000     0.943700000000     0.1041     
C10      C      0.943700000000     0.879040000000     0.443700000000     0.1041     
C10      C      0.943700000000     0.879040000000     0.943700000000     0.1041     
C11      C      0.237130000000     0.465450000000     0.331970000000     0.1041     
C11      C      0.237130000000     0.465450000000     0.831970000000     0.1041     
C11      C      0.237130000000     0.965450000000     0.331970000000     0.1041     
C11      C      0.237130000000     0.965450000000     0.831970000000     0.1041     
C11      C      0.737130000000     0.465450000000     0.331970000000     0.1041     
C11      C      0.737130000000     0.465450000000     0.831970000000     0.1041     
C11      C      0.737130000000     0.965450000000     0.331970000000     0.1041     
C11      C      0.737130000000     0.965450000000     0.831970000000     0.1041     
C12      C      0.233560000000     0.443700000000     0.379040000000     0.1041     
C12      C      0.233560000000     0.443700000000     0.879040000000     0.1041     
C12      C      0.233560000000     0.943700000000     0.379040000000     0.1041     
C12      C      0.233560000000     0.943700000000     0.879040000000     0.1041     
C12      C      0.733560000000     0.443700000000     0.379040000000     0.1041     
C12      C      0.733560000000     0.443700000000     0.879040000000     0.1041     
C12      C      0.733560000000     0.943700000000     0.379040000000     0.1041     
C12      C      0.733560000000     0.943700000000     0.879040000000     0.1041     
C13      C      0.331970000000     0.465450000000     0.237130000000     0.1041     
C13      C      0.331970000000     0.465450000000     0.737130000000     0.1041     
C13      C      0.331970000000     0.965450000000     0.237130000000     0.1041     
C13      C      0.331970000000     0.965450000000     0.737130000000     0.1041     
C13      C      0.831970000000     0.465450000000     0.237130000000     0.1041     
C13      C      0.831970000000     0.465450000000     0.737130000000     0.1041     
C13      C      0.831970000000     0.965450000000     0.237130000000     0.1041     
C13      C      0.831970000000     0.965450000000     0.737130000000     0.1041     
C14      C      0.379040000000     0.443700000000     0.233560000000     0.1041     
C14      C      0.379040000000     0.443700000000     0.733560000000     0.1041     
C14      C      0.379040000000     0.943700000000     0.233560000000     0.1041     
C14      C      0.379040000000     0.943700000000     0.733560000000     0.1041     
C14      C      0.879040000000     0.443700000000     0.233560000000     0.1041     
C14      C      0.879040000000     0.443700000000     0.733560000000     0.1041     
C14      C      0.879040000000     0.943700000000     0.233560000000     0.1041     
C14      C      0.879040000000     0.943700000000     0.733560000000     0.1041     
C15      C      0.465450000000     0.237130000000     0.465450000000     0.1041     
C15      C      0.465450000000     0.237130000000     0.965450000000     0.1041     
C15      C      0.465450000000     0.737130000000     0.465450000000     0.1041     
C15      C      0.465450000000     0.737130000000     0.965450000000     0.1041     
C15      C      0.965450000000     0.237130000000     0.465450000000     0.1041     
C15      C      0.965450000000     0.237130000000     0.965450000000     0.1041     
C15      C      0.965450000000     0.737130000000     0.465450000000     0.1041     
C15      C      0.965450000000     0.737130000000     0.965450000000     0.1041     
C16      C      0.443700000000     0.233560000000     0.443700000000     0.1041     
C16      C      0.443700000000     0.233560000000     0.943700000000     0.1041     
C16      C      0.443700000000     0.733560000000     0.443700000000     0.1041     
C16      C      0.443700000000     0.733560000000     0.943700000000     0.1041     
C16      C      0.943700000000     0.233560000000     0.443700000000     0.1041     
C16      C      0.943700000000     0.233560000000     0.943700000000     0.1041     
C16      C      0.943700000000     0.733560000000     0.443700000000     0.1041     
C16      C      0.943700000000     0.733560000000     0.943700000000     0.1041     
C17      C      0.465450000000     0.465450000000     0.237130000000     0.1041     
C17      C      0.465450000000     0.465450000000     0.737130000000     0.1041     
C17      C      0.465450000000     0.965450000000     0.237130000000     0.1041     
C17      C      0.465450000000     0.965450000000     0.737130000000     0.1041     
C17      C      0.965450000000     0.465450000000     0.237130000000     0.1041     
C17      C      0.965450000000     0.465450000000     0.737130000000     0.1041     
C17      C      0.965450000000     0.965450000000     0.237130000000     0.1041     
C17      C      0.965450000000     0.965450000000     0.737130000000     0.1041     
C18      C      0.443700000000     0.443700000000     0.233560000000     0.104096   
C18      C      0.443700000000     0.443700000000     0.733560000000     0.104096   
C18      C      0.443700000000     0.943700000000     0.233560000000     0.104096   
C18      C      0.443700000000     0.943700000000     0.733560000000     0.104096   
C18      C      0.943700000000     0.443700000000     0.233560000000     0.104096   
C18      C      0.943700000000     0.443700000000     0.733560000000     0.104096   
C18      C      0.943700000000     0.943700000000     0.233560000000     0.104096   
C18      C      0.943700000000     0.943700000000     0.733560000000     0.104096   
C19      C      0.237130000000     0.331970000000     0.465450000000     0.104095   
C19      C      0.237130000000     0.331970000000     0.965450000000     0.104095   
C19      C      0.237130000000     0.831970000000     0.465450000000     0.104095   
C19      C      0.237130000000     0.831970000000     0.965450000000     0.104095   
C19      C      0.737130000000     0.331970000000     0.465450000000     0.104095   
C19      C      0.737130000000     0.331970000000     0.965450000000     0.104095   
C19      C      0.737130000000     0.831970000000     0.465450000000     0.104095   
C19      C      0.737130000000     0.831970000000     0.965450000000     0.104095   
C20      C      0.233560000000     0.379040000000     0.443700000000     0.104079   
C20      C      0.233560000000     0.379040000000     0.943700000000     0.104079   
C20      C      0.233560000000     0.879040000000     0.443700000000     0.104079   
C20      C      0.233560000000     0.879040000000     0.943700000000     0.104079   
C20      C      0.733560000000     0.379040000000     0.443700000000     0.104079   
C20      C      0.733560000000     0.379040000000     0.943700000000     0.104079   
C20      C      0.733560000000     0.879040000000     0.443700000000     0.104079   
C20      C      0.733560000000     0.879040000000     0.943700000000     0.104079   
C21      C      0.331970000000     0.237130000000     0.465450000000     0.104082   
C21      C      0.331970000000     0.237130000000     0.965450000000     0.104082   
C21      C      0.331970000000     0.737130000000     0.465450000000     0.104082   
C21      C      0.331970000000     0.737130000000     0.965450000000     0.104082   
C21      C      0.831970000000     0.237130000000     0.465450000000     0.104082   
C21      C      0.831970000000     0.237130000000     0.965450000000     0.104082   
C21      C      0.831970000000     0.737130000000     0.465450000000     0.104082   
C21      C      0.831970000000     0.737130000000     0.965450000000     0.104082   
C22      C      0.379040000000     0.233560000000     0.443700000000     0.104084   
C22      C      0.379040000000     0.233560000000     0.943700000000     0.104084   
C22      C      0.379040000000     0.733560000000     0.443700000000     0.104084   
C22      C      0.379040000000     0.733560000000     0.943700000000     0.104084   
C22      C      0.879040000000     0.233560000000     0.443700000000     0.104084   
C22      C      0.879040000000     0.233560000000     0.943700000000     0.104084   
C22      C      0.879040000000     0.733560000000     0.443700000000     0.104084   
C22      C      0.879040000000     0.733560000000     0.943700000000     0.104084   
C23      C      0.465450000000     0.465450000000     0.331970000000     0.104094   
C23      C      0.465450000000     0.465450000000     0.831970000000     0.104094   
C23      C      0.465450000000     0.965450000000     0.331970000000     0.104094   
C23      C      0.465450000000     0.965450000000     0.831970000000     0.104094   
C23      C      0.965450000000     0.465450000000     0.331970000000     0.104094   
C23      C      0.965450000000     0.465450000000     0.831970000000     0.104094   
C23      C      0.965450000000     0.965450000000     0.331970000000     0.104094   
C23      C      0.965450000000     0.965450000000     0.831970000000     0.104094   
C24      C      0.443700000000     0.443700000000     0.379040000000     0.104087   
C24      C      0.443700000000     0.443700000000     0.879040000000     0.104087   
C24      C      0.443700000000     0.943700000000     0.379040000000     0.104087   
C24      C      0.443700000000     0.943700000000     0.879040000000     0.104087   
C24      C      0.943700000000     0.443700000000     0.379040000000     0.104087   
C24      C      0.943700000000     0.443700000000     0.879040000000     0.104087   
C24      C      0.943700000000     0.943700000000     0.379040000000     0.104087   
C24      C      0.943700000000     0.943700000000     0.879040000000     0.104087   
C25      C      0.262870000000     0.034550000000     0.168030000000     0.104094   
C25      C      0.262870000000     0.034550000000     0.668030000000     0.104094   
C25      C      0.262870000000     0.534550000000     0.168030000000     0.104094   
C25      C      0.262870000000     0.534550000000     0.668030000000     0.104094   
C25      C      0.762870000000     0.034550000000     0.168030000000     0.104094   
C25      C      0.762870000000     0.034550000000     0.668030000000     0.104094   
C25      C      0.762870000000     0.534550000000     0.168030000000     0.104094   
C25      C      0.762870000000     0.534550000000     0.668030000000     0.104094   
C26      C      0.266440000000     0.056300000000     0.120960000000     0.104082   
C26      C      0.266440000000     0.056300000000     0.620960000000     0.104082   
C26      C      0.266440000000     0.556300000000     0.120960000000     0.104082   
C26      C      0.266440000000     0.556300000000     0.620960000000     0.104082   
C26      C      0.766440000000     0.056300000000     0.120960000000     0.104082   
C26      C      0.766440000000     0.056300000000     0.620960000000     0.104082   
C26      C      0.766440000000     0.556300000000     0.120960000000     0.104082   
C26      C      0.766440000000     0.556300000000     0.620960000000     0.104082   
C27      C      0.034550000000     0.262870000000     0.034550000000     0.104096   
C27      C      0.034550000000     0.262870000000     0.534550000000     0.104096   
C27      C      0.034550000000     0.762870000000     0.034550000000     0.104096   
C27      C      0.034550000000     0.762870000000     0.534550000000     0.104096   
C27      C      0.534550000000     0.262870000000     0.034550000000     0.104096   
C27      C      0.534550000000     0.262870000000     0.534550000000     0.104096   
C27      C      0.534550000000     0.762870000000     0.034550000000     0.104096   
C27      C      0.534550000000     0.762870000000     0.534550000000     0.104096   
C28      C      0.056300000000     0.266440000000     0.056300000000     0.104095   
C28      C      0.056300000000     0.266440000000     0.556300000000     0.104095   
C28      C      0.056300000000     0.766440000000     0.056300000000     0.104095   
C28      C      0.056300000000     0.766440000000     0.556300000000     0.104095   
C28      C      0.556300000000     0.266440000000     0.056300000000     0.104095   
C28      C      0.556300000000     0.266440000000     0.556300000000     0.104095   
C28      C      0.556300000000     0.766440000000     0.056300000000     0.104095   
C28      C      0.556300000000     0.766440000000     0.556300000000     0.104095   
C29      C      0.034550000000     0.168030000000     0.034550000000     0.104079   
C29      C      0.034550000000     0.168030000000     0.534550000000     0.104079   
C29      C      0.034550000000     0.668030000000     0.034550000000     0.104079   
C29      C      0.034550000000     0.668030000000     0.534550000000     0.104079   
C29      C      0.534550000000     0.168030000000     0.034550000000     0.104079   
C29      C      0.534550000000     0.168030000000     0.534550000000     0.104079   
C29      C      0.534550000000     0.668030000000     0.034550000000     0.104079   
C29      C      0.534550000000     0.668030000000     0.534550000000     0.104079   
C30      C      0.056300000000     0.120960000000     0.056300000000    -0.435641   
C30      C      0.056300000000     0.120960000000     0.556300000000    -0.435641   
C30      C      0.056300000000     0.620960000000     0.056300000000    -0.435641   
C30      C      0.056300000000     0.620960000000     0.556300000000    -0.435641   
C30      C      0.556300000000     0.120960000000     0.056300000000    -0.435641   
C30      C      0.556300000000     0.120960000000     0.556300000000    -0.435641   
C30      C      0.556300000000     0.620960000000     0.056300000000    -0.435641   
C30      C      0.556300000000     0.620960000000     0.556300000000    -0.435641   
C31      C      0.168030000000     0.034550000000     0.262870000000    -0.435641   
C31      C      0.168030000000     0.034550000000     0.762870000000    -0.435641   
C31      C      0.168030000000     0.534550000000     0.262870000000    -0.435641   
C31      C      0.168030000000     0.534550000000     0.762870000000    -0.435641   
C31      C      0.668030000000     0.034550000000     0.262870000000    -0.435641   
C31      C      0.668030000000     0.034550000000     0.762870000000    -0.435641   
C31      C      0.668030000000     0.534550000000     0.262870000000    -0.435641   
C31      C      0.668030000000     0.534550000000     0.762870000000    -0.435641   
C32      C      0.120960000000     0.056300000000     0.266440000000    -0.435606   
C32      C      0.120960000000     0.056300000000     0.766440000000    -0.435606   
C32      C      0.120960000000     0.556300000000     0.266440000000    -0.435606   
C32      C      0.120960000000     0.556300000000     0.766440000000    -0.435606   
C32      C      0.620960000000     0.056300000000     0.266440000000    -0.435606   
C32      C      0.620960000000     0.056300000000     0.766440000000    -0.435606   
C32      C      0.620960000000     0.556300000000     0.266440000000    -0.435606   
C32      C      0.620960000000     0.556300000000     0.766440000000    -0.435606   
C33      C      0.168030000000     0.034550000000     0.034550000000    -0.435604   
C33      C      0.168030000000     0.034550000000     0.534550000000    -0.435604   
C33      C      0.168030000000     0.534550000000     0.034550000000    -0.435604   
C33      C      0.168030000000     0.534550000000     0.534550000000    -0.435604   
C33      C      0.668030000000     0.034550000000     0.034550000000    -0.435604   
C33      C      0.668030000000     0.034550000000     0.534550000000    -0.435604   
C33      C      0.668030000000     0.534550000000     0.034550000000    -0.435604   
C33      C      0.668030000000     0.534550000000     0.534550000000    -0.435604   
C34      C      0.120960000000     0.056300000000     0.056300000000    -0.435633   
C34      C      0.120960000000     0.056300000000     0.556300000000    -0.435633   
C34      C      0.120960000000     0.556300000000     0.056300000000    -0.435633   
C34      C      0.120960000000     0.556300000000     0.556300000000    -0.435633   
C34      C      0.620960000000     0.056300000000     0.056300000000    -0.435633   
C34      C      0.620960000000     0.056300000000     0.556300000000    -0.435633   
C34      C      0.620960000000     0.556300000000     0.056300000000    -0.435633   
C34      C      0.620960000000     0.556300000000     0.556300000000    -0.435633   
C35      C      0.034550000000     0.262870000000     0.168030000000    -0.435605   
C35      C      0.034550000000     0.262870000000     0.668030000000    -0.435605   
C35      C      0.034550000000     0.762870000000     0.168030000000    -0.435605   
C35      C      0.034550000000     0.762870000000     0.668030000000    -0.435605   
C35      C      0.534550000000     0.262870000000     0.168030000000    -0.435605   
C35      C      0.534550000000     0.262870000000     0.668030000000    -0.435605   
C35      C      0.534550000000     0.762870000000     0.168030000000    -0.435605   
C35      C      0.534550000000     0.762870000000     0.668030000000    -0.435605   
C36      C      0.056300000000     0.266440000000     0.120960000000    -0.435634   
C36      C      0.056300000000     0.266440000000     0.620960000000    -0.435634   
C36      C      0.056300000000     0.766440000000     0.120960000000    -0.435634   
C36      C      0.056300000000     0.766440000000     0.620960000000    -0.435634   
C36      C      0.556300000000     0.266440000000     0.120960000000    -0.435634   
C36      C      0.556300000000     0.266440000000     0.620960000000    -0.435634   
C36      C      0.556300000000     0.766440000000     0.120960000000    -0.435634   
C36      C      0.556300000000     0.766440000000     0.620960000000    -0.435634   
C37      C      0.034550000000     0.168030000000     0.262870000000    -0.435608   
C37      C      0.034550000000     0.168030000000     0.762870000000    -0.435608   
C37      C      0.034550000000     0.668030000000     0.262870000000    -0.435608   
C37      C      0.034550000000     0.668030000000     0.762870000000    -0.435608   
C37      C      0.534550000000     0.168030000000     0.262870000000    -0.435608   
C37      C      0.534550000000     0.168030000000     0.762870000000    -0.435608   
C37      C      0.534550000000     0.668030000000     0.262870000000    -0.435608   
C37      C      0.534550000000     0.668030000000     0.762870000000    -0.435608   
C38      C      0.056300000000     0.120960000000     0.266440000000    -0.435628   
C38      C      0.056300000000     0.120960000000     0.766440000000    -0.435628   
C38      C      0.056300000000     0.620960000000     0.266440000000    -0.435628   
C38      C      0.056300000000     0.620960000000     0.766440000000    -0.435628   
C38      C      0.556300000000     0.120960000000     0.266440000000    -0.435628   
C38      C      0.556300000000     0.120960000000     0.766440000000    -0.435628   
C38      C      0.556300000000     0.620960000000     0.266440000000    -0.435628   
C38      C      0.556300000000     0.620960000000     0.766440000000    -0.435628   
C39      C      0.262870000000     0.034550000000     0.034550000000    -0.435608   
C39      C      0.262870000000     0.034550000000     0.534550000000    -0.435608   
C39      C      0.262870000000     0.534550000000     0.034550000000    -0.435608   
C39      C      0.262870000000     0.534550000000     0.534550000000    -0.435608   
C39      C      0.762870000000     0.034550000000     0.034550000000    -0.435608   
C39      C      0.762870000000     0.034550000000     0.534550000000    -0.435608   
C39      C      0.762870000000     0.534550000000     0.034550000000    -0.435608   
C39      C      0.762870000000     0.534550000000     0.534550000000    -0.435608   
C40      C      0.266440000000     0.056300000000     0.056300000000    -0.435604   
C40      C      0.266440000000     0.056300000000     0.556300000000    -0.435604   
C40      C      0.266440000000     0.556300000000     0.056300000000    -0.435604   
C40      C      0.266440000000     0.556300000000     0.556300000000    -0.435604   
C40      C      0.766440000000     0.056300000000     0.056300000000    -0.435604   
C40      C      0.766440000000     0.056300000000     0.556300000000    -0.435604   
C40      C      0.766440000000     0.556300000000     0.056300000000    -0.435604   
C40      C      0.766440000000     0.556300000000     0.556300000000    -0.435604   
C41      C      0.034550000000     0.034550000000     0.262870000000    -0.435627   
C41      C      0.034550000000     0.034550000000     0.762870000000    -0.435627   
C41      C      0.034550000000     0.534550000000     0.262870000000    -0.435627   
C41      C      0.034550000000     0.534550000000     0.762870000000    -0.435627   
C41      C      0.534550000000     0.034550000000     0.262870000000    -0.435627   
C41      C      0.534550000000     0.034550000000     0.762870000000    -0.435627   
C41      C      0.534550000000     0.534550000000     0.262870000000    -0.435627   
C41      C      0.534550000000     0.534550000000     0.762870000000    -0.435627   
C42      C      0.056300000000     0.056300000000     0.266440000000    -0.435604   
C42      C      0.056300000000     0.056300000000     0.766440000000    -0.435604   
C42      C      0.056300000000     0.556300000000     0.266440000000    -0.435604   
C42      C      0.056300000000     0.556300000000     0.766440000000    -0.435604   
C42      C      0.556300000000     0.056300000000     0.266440000000    -0.435604   
C42      C      0.556300000000     0.056300000000     0.766440000000    -0.435604   
C42      C      0.556300000000     0.556300000000     0.266440000000    -0.435604   
C42      C      0.556300000000     0.556300000000     0.766440000000    -0.435604   
C43      C      0.168030000000     0.262870000000     0.034550000000    -0.435603   
C43      C      0.168030000000     0.262870000000     0.534550000000    -0.435603   
C43      C      0.168030000000     0.762870000000     0.034550000000    -0.435603   
C43      C      0.168030000000     0.762870000000     0.534550000000    -0.435603   
C43      C      0.668030000000     0.262870000000     0.034550000000    -0.435603   
C43      C      0.668030000000     0.262870000000     0.534550000000    -0.435603   
C43      C      0.668030000000     0.762870000000     0.034550000000    -0.435603   
C43      C      0.668030000000     0.762870000000     0.534550000000    -0.435603   
C44      C      0.120960000000     0.266440000000     0.056300000000    -0.435601   
C44      C      0.120960000000     0.266440000000     0.556300000000    -0.435601   
C44      C      0.120960000000     0.766440000000     0.056300000000    -0.435601   
C44      C      0.120960000000     0.766440000000     0.556300000000    -0.435601   
C44      C      0.620960000000     0.266440000000     0.056300000000    -0.435601   
C44      C      0.620960000000     0.266440000000     0.556300000000    -0.435601   
C44      C      0.620960000000     0.766440000000     0.056300000000    -0.435601   
C44      C      0.620960000000     0.766440000000     0.556300000000    -0.435601   
C45      C      0.262870000000     0.168030000000     0.034550000000    -0.4356     
C45      C      0.262870000000     0.168030000000     0.534550000000    -0.4356     
C45      C      0.262870000000     0.668030000000     0.034550000000    -0.4356     
C45      C      0.262870000000     0.668030000000     0.534550000000    -0.4356     
C45      C      0.762870000000     0.168030000000     0.034550000000    -0.4356     
C45      C      0.762870000000     0.168030000000     0.534550000000    -0.4356     
C45      C      0.762870000000     0.668030000000     0.034550000000    -0.4356     
C45      C      0.762870000000     0.668030000000     0.534550000000    -0.4356     
C46      C      0.266440000000     0.120960000000     0.056300000000    -0.435605   
C46      C      0.266440000000     0.120960000000     0.556300000000    -0.435605   
C46      C      0.266440000000     0.620960000000     0.056300000000    -0.435605   
C46      C      0.266440000000     0.620960000000     0.556300000000    -0.435605   
C46      C      0.766440000000     0.120960000000     0.056300000000    -0.435605   
C46      C      0.766440000000     0.120960000000     0.556300000000    -0.435605   
C46      C      0.766440000000     0.620960000000     0.056300000000    -0.435605   
C46      C      0.766440000000     0.620960000000     0.556300000000    -0.435605   
C47      C      0.034550000000     0.034550000000     0.168030000000    -0.4356     
C47      C      0.034550000000     0.034550000000     0.668030000000    -0.4356     
C47      C      0.034550000000     0.534550000000     0.168030000000    -0.4356     
C47      C      0.034550000000     0.534550000000     0.668030000000    -0.4356     
C47      C      0.534550000000     0.034550000000     0.168030000000    -0.4356     
C47      C      0.534550000000     0.034550000000     0.668030000000    -0.4356     
C47      C      0.534550000000     0.534550000000     0.168030000000    -0.4356     
C47      C      0.534550000000     0.534550000000     0.668030000000    -0.4356     
C48      C      0.056300000000     0.056300000000     0.120960000000    -0.435605   
C48      C      0.056300000000     0.056300000000     0.620960000000    -0.435605   
C48      C      0.056300000000     0.556300000000     0.120960000000    -0.435605   
C48      C      0.056300000000     0.556300000000     0.620960000000    -0.435605   
C48      C      0.556300000000     0.056300000000     0.120960000000    -0.435605   
C48      C      0.556300000000     0.056300000000     0.620960000000    -0.435605   
C48      C      0.556300000000     0.556300000000     0.120960000000    -0.435605   
C48      C      0.556300000000     0.556300000000     0.620960000000    -0.435605   
C49      C      0.400750000000     0.233610000000     0.400750000000    -0.435601   
C49      C      0.400750000000     0.233610000000     0.900750000000    -0.435601   
C49      C      0.400750000000     0.733610000000     0.400750000000    -0.435601   
C49      C      0.400750000000     0.733610000000     0.900750000000    -0.435601   
C49      C      0.900750000000     0.233610000000     0.400750000000    -0.435601   
C49      C      0.900750000000     0.233610000000     0.900750000000    -0.435601   
C49      C      0.900750000000     0.733610000000     0.400750000000    -0.435601   
C49      C      0.900750000000     0.733610000000     0.900750000000    -0.435601   
C50      C      0.233610000000     0.400750000000     0.464890000000    -0.435607   
C50      C      0.233610000000     0.400750000000     0.964890000000    -0.435607   
C50      C      0.233610000000     0.900750000000     0.464890000000    -0.435607   
C50      C      0.233610000000     0.900750000000     0.964890000000    -0.435607   
C50      C      0.733610000000     0.400750000000     0.464890000000    -0.435607   
C50      C      0.733610000000     0.400750000000     0.964890000000    -0.435607   
C50      C      0.733610000000     0.900750000000     0.464890000000    -0.435607   
C50      C      0.733610000000     0.900750000000     0.964890000000    -0.435607   
C51      C      0.400750000000     0.464890000000     0.400750000000    -0.435605   
C51      C      0.400750000000     0.464890000000     0.900750000000    -0.435605   
C51      C      0.400750000000     0.964890000000     0.400750000000    -0.435605   
C51      C      0.400750000000     0.964890000000     0.900750000000    -0.435605   
C51      C      0.900750000000     0.464890000000     0.400750000000    -0.435605   
C51      C      0.900750000000     0.464890000000     0.900750000000    -0.435605   
C51      C      0.900750000000     0.964890000000     0.400750000000    -0.435605   
C51      C      0.900750000000     0.964890000000     0.900750000000    -0.435605   
C52      C      0.464890000000     0.400750000000     0.233610000000    -0.435604   
C52      C      0.464890000000     0.400750000000     0.733610000000    -0.435604   
C52      C      0.464890000000     0.900750000000     0.233610000000    -0.435604   
C52      C      0.464890000000     0.900750000000     0.733610000000    -0.435604   
C52      C      0.964890000000     0.400750000000     0.233610000000    -0.435604   
C52      C      0.964890000000     0.400750000000     0.733610000000    -0.435604   
C52      C      0.964890000000     0.900750000000     0.233610000000    -0.435604   
C52      C      0.964890000000     0.900750000000     0.733610000000    -0.435604   
C53      C      0.400750000000     0.400750000000     0.464890000000    -0.435607   
C53      C      0.400750000000     0.400750000000     0.964890000000    -0.435607   
C53      C      0.400750000000     0.900750000000     0.464890000000    -0.435607   
C53      C      0.400750000000     0.900750000000     0.964890000000    -0.435607   
C53      C      0.900750000000     0.400750000000     0.464890000000    -0.435607   
C53      C      0.900750000000     0.400750000000     0.964890000000    -0.435607   
C53      C      0.900750000000     0.900750000000     0.464890000000    -0.435607   
C53      C      0.900750000000     0.900750000000     0.964890000000    -0.435607   
C54      C      0.233610000000     0.464890000000     0.400750000000    -0.435604   
C54      C      0.233610000000     0.464890000000     0.900750000000    -0.435604   
C54      C      0.233610000000     0.964890000000     0.400750000000    -0.435604   
C54      C      0.233610000000     0.964890000000     0.900750000000    -0.435604   
C54      C      0.733610000000     0.464890000000     0.400750000000    -0.435604   
C54      C      0.733610000000     0.464890000000     0.900750000000    -0.435604   
C54      C      0.733610000000     0.964890000000     0.400750000000    -0.435604   
C54      C      0.733610000000     0.964890000000     0.900750000000    -0.435604   
C55      C      0.400750000000     0.400750000000     0.233610000000    -0.435603   
C55      C      0.400750000000     0.400750000000     0.733610000000    -0.435603   
C55      C      0.400750000000     0.900750000000     0.233610000000    -0.435603   
C55      C      0.400750000000     0.900750000000     0.733610000000    -0.435603   
C55      C      0.900750000000     0.400750000000     0.233610000000    -0.435603   
C55      C      0.900750000000     0.400750000000     0.733610000000    -0.435603   
C55      C      0.900750000000     0.900750000000     0.233610000000    -0.435603   
C55      C      0.900750000000     0.900750000000     0.733610000000    -0.435603   
C56      C      0.464890000000     0.233610000000     0.400750000000    -0.435601   
C56      C      0.464890000000     0.233610000000     0.900750000000    -0.435601   
C56      C      0.464890000000     0.733610000000     0.400750000000    -0.435601   
C56      C      0.464890000000     0.733610000000     0.900750000000    -0.435601   
C56      C      0.964890000000     0.233610000000     0.400750000000    -0.435601   
C56      C      0.964890000000     0.233610000000     0.900750000000    -0.435601   
C56      C      0.964890000000     0.733610000000     0.400750000000    -0.435601   
C56      C      0.964890000000     0.733610000000     0.900750000000    -0.435601   
C57      C      0.400750000000     0.464890000000     0.233610000000    -0.4356     
C57      C      0.400750000000     0.464890000000     0.733610000000    -0.4356     
C57      C      0.400750000000     0.964890000000     0.233610000000    -0.4356     
C57      C      0.400750000000     0.964890000000     0.733610000000    -0.4356     
C57      C      0.900750000000     0.464890000000     0.233610000000    -0.4356     
C57      C      0.900750000000     0.464890000000     0.733610000000    -0.4356     
C57      C      0.900750000000     0.964890000000     0.233610000000    -0.4356     
C57      C      0.900750000000     0.964890000000     0.733610000000    -0.4356     
C58      C      0.233610000000     0.400750000000     0.400750000000    -0.435605   
C58      C      0.233610000000     0.400750000000     0.900750000000    -0.435605   
C58      C      0.233610000000     0.900750000000     0.400750000000    -0.435605   
C58      C      0.233610000000     0.900750000000     0.900750000000    -0.435605   
C58      C      0.733610000000     0.400750000000     0.400750000000    -0.435605   
C58      C      0.733610000000     0.400750000000     0.900750000000    -0.435605   
C58      C      0.733610000000     0.900750000000     0.400750000000    -0.435605   
C58      C      0.733610000000     0.900750000000     0.900750000000    -0.435605   
C59      C      0.400750000000     0.233610000000     0.464890000000    -0.4356     
C59      C      0.400750000000     0.233610000000     0.964890000000    -0.4356     
C59      C      0.400750000000     0.733610000000     0.464890000000    -0.4356     
C59      C      0.400750000000     0.733610000000     0.964890000000    -0.4356     
C59      C      0.900750000000     0.233610000000     0.464890000000    -0.4356     
C59      C      0.900750000000     0.233610000000     0.964890000000    -0.4356     
C59      C      0.900750000000     0.733610000000     0.464890000000    -0.4356     
C59      C      0.900750000000     0.733610000000     0.964890000000    -0.4356     
C60      C      0.464890000000     0.400750000000     0.400750000000    -0.435605   
C60      C      0.464890000000     0.400750000000     0.900750000000    -0.435605   
C60      C      0.464890000000     0.900750000000     0.400750000000    -0.435605   
C60      C      0.464890000000     0.900750000000     0.900750000000    -0.435605   
C60      C      0.964890000000     0.400750000000     0.400750000000    -0.435605   
C60      C      0.964890000000     0.400750000000     0.900750000000    -0.435605   
C60      C      0.964890000000     0.900750000000     0.400750000000    -0.435605   
C60      C      0.964890000000     0.900750000000     0.900750000000    -0.435605   
C61      C      0.266390000000     0.099250000000     0.099250000000    -0.435601   
C61      C      0.266390000000     0.099250000000     0.599250000000    -0.435601   
C61      C      0.266390000000     0.599250000000     0.099250000000    -0.435601   
C61      C      0.266390000000     0.599250000000     0.599250000000    -0.435601   
C61      C      0.766390000000     0.099250000000     0.099250000000    -0.435601   
C61      C      0.766390000000     0.099250000000     0.599250000000    -0.435601   
C61      C      0.766390000000     0.599250000000     0.099250000000    -0.435601   
C61      C      0.766390000000     0.599250000000     0.599250000000    -0.435601   
C62      C      0.099250000000     0.266390000000     0.035110000000    -0.435607   
C62      C      0.099250000000     0.266390000000     0.535110000000    -0.435607   
C62      C      0.099250000000     0.766390000000     0.035110000000    -0.435607   
C62      C      0.099250000000     0.766390000000     0.535110000000    -0.435607   
C62      C      0.599250000000     0.266390000000     0.035110000000    -0.435607   
C62      C      0.599250000000     0.266390000000     0.535110000000    -0.435607   
C62      C      0.599250000000     0.766390000000     0.035110000000    -0.435607   
C62      C      0.599250000000     0.766390000000     0.535110000000    -0.435607   
C63      C      0.035110000000     0.099250000000     0.099250000000    -0.435605   
C63      C      0.035110000000     0.099250000000     0.599250000000    -0.435605   
C63      C      0.035110000000     0.599250000000     0.099250000000    -0.435605   
C63      C      0.035110000000     0.599250000000     0.599250000000    -0.435605   
C63      C      0.535110000000     0.099250000000     0.099250000000    -0.435605   
C63      C      0.535110000000     0.099250000000     0.599250000000    -0.435605   
C63      C      0.535110000000     0.599250000000     0.099250000000    -0.435605   
C63      C      0.535110000000     0.599250000000     0.599250000000    -0.435605   
C64      C      0.099250000000     0.035110000000     0.266390000000    -0.435604   
C64      C      0.099250000000     0.035110000000     0.766390000000    -0.435604   
C64      C      0.099250000000     0.535110000000     0.266390000000    -0.435604   
C64      C      0.099250000000     0.535110000000     0.766390000000    -0.435604   
C64      C      0.599250000000     0.035110000000     0.266390000000    -0.435604   
C64      C      0.599250000000     0.035110000000     0.766390000000    -0.435604   
C64      C      0.599250000000     0.535110000000     0.266390000000    -0.435604   
C64      C      0.599250000000     0.535110000000     0.766390000000    -0.435604   
C65      C      0.099250000000     0.099250000000     0.035110000000    -0.435607   
C65      C      0.099250000000     0.099250000000     0.535110000000    -0.435607   
C65      C      0.099250000000     0.599250000000     0.035110000000    -0.435607   
C65      C      0.099250000000     0.599250000000     0.535110000000    -0.435607   
C65      C      0.599250000000     0.099250000000     0.035110000000    -0.435607   
C65      C      0.599250000000     0.099250000000     0.535110000000    -0.435607   
C65      C      0.599250000000     0.599250000000     0.035110000000    -0.435607   
C65      C      0.599250000000     0.599250000000     0.535110000000    -0.435607   
C66      C      0.035110000000     0.266390000000     0.099250000000    -0.435641   
C66      C      0.035110000000     0.266390000000     0.599250000000    -0.435641   
C66      C      0.035110000000     0.766390000000     0.099250000000    -0.435641   
C66      C      0.035110000000     0.766390000000     0.599250000000    -0.435641   
C66      C      0.535110000000     0.266390000000     0.099250000000    -0.435641   
C66      C      0.535110000000     0.266390000000     0.599250000000    -0.435641   
C66      C      0.535110000000     0.766390000000     0.099250000000    -0.435641   
C66      C      0.535110000000     0.766390000000     0.599250000000    -0.435641   
C67      C      0.099250000000     0.099250000000     0.266390000000    -0.435641   
C67      C      0.099250000000     0.099250000000     0.766390000000    -0.435641   
C67      C      0.099250000000     0.599250000000     0.266390000000    -0.435641   
C67      C      0.099250000000     0.599250000000     0.766390000000    -0.435641   
C67      C      0.599250000000     0.099250000000     0.266390000000    -0.435641   
C67      C      0.599250000000     0.099250000000     0.766390000000    -0.435641   
C67      C      0.599250000000     0.599250000000     0.266390000000    -0.435641   
C67      C      0.599250000000     0.599250000000     0.766390000000    -0.435641   
C68      C      0.266390000000     0.035110000000     0.099250000000    -0.435606   
C68      C      0.266390000000     0.035110000000     0.599250000000    -0.435606   
C68      C      0.266390000000     0.535110000000     0.099250000000    -0.435606   
C68      C      0.266390000000     0.535110000000     0.599250000000    -0.435606   
C68      C      0.766390000000     0.035110000000     0.099250000000    -0.435606   
C68      C      0.766390000000     0.035110000000     0.599250000000    -0.435606   
C68      C      0.766390000000     0.535110000000     0.099250000000    -0.435606   
C68      C      0.766390000000     0.535110000000     0.599250000000    -0.435606   
C69      C      0.035110000000     0.099250000000     0.266390000000    -0.435604   
C69      C      0.035110000000     0.099250000000     0.766390000000    -0.435604   
C69      C      0.035110000000     0.599250000000     0.266390000000    -0.435604   
C69      C      0.035110000000     0.599250000000     0.766390000000    -0.435604   
C69      C      0.535110000000     0.099250000000     0.266390000000    -0.435604   
C69      C      0.535110000000     0.099250000000     0.766390000000    -0.435604   
C69      C      0.535110000000     0.599250000000     0.266390000000    -0.435604   
C69      C      0.535110000000     0.599250000000     0.766390000000    -0.435604   
C70      C      0.099250000000     0.266390000000     0.099250000000    -0.435633   
C70      C      0.099250000000     0.266390000000     0.599250000000    -0.435633   
C70      C      0.099250000000     0.766390000000     0.099250000000    -0.435633   
C70      C      0.099250000000     0.766390000000     0.599250000000    -0.435633   
C70      C      0.599250000000     0.266390000000     0.099250000000    -0.435633   
C70      C      0.599250000000     0.266390000000     0.599250000000    -0.435633   
C70      C      0.599250000000     0.766390000000     0.099250000000    -0.435633   
C70      C      0.599250000000     0.766390000000     0.599250000000    -0.435633   
C71      C      0.266390000000     0.099250000000     0.035110000000    -0.435605   
C71      C      0.266390000000     0.099250000000     0.535110000000    -0.435605   
C71      C      0.266390000000     0.599250000000     0.035110000000    -0.435605   
C71      C      0.266390000000     0.599250000000     0.535110000000    -0.435605   
C71      C      0.766390000000     0.099250000000     0.035110000000    -0.435605   
C71      C      0.766390000000     0.099250000000     0.535110000000    -0.435605   
C71      C      0.766390000000     0.599250000000     0.035110000000    -0.435605   
C71      C      0.766390000000     0.599250000000     0.535110000000    -0.435605   
C72      C      0.099250000000     0.035110000000     0.099250000000    -0.435634   
C72      C      0.099250000000     0.035110000000     0.599250000000    -0.435634   
C72      C      0.099250000000     0.535110000000     0.099250000000    -0.435634   
C72      C      0.099250000000     0.535110000000     0.599250000000    -0.435634   
C72      C      0.599250000000     0.035110000000     0.099250000000    -0.435634   
C72      C      0.599250000000     0.035110000000     0.599250000000    -0.435634   
C72      C      0.599250000000     0.535110000000     0.099250000000    -0.435634   
C72      C      0.599250000000     0.535110000000     0.599250000000    -0.435634   
O1       O      0.003700000000     0.239340000000     0.313230000000    -0.435608   
O1       O      0.003700000000     0.239340000000     0.813230000000    -0.435608   
O1       O      0.003700000000     0.739340000000     0.313230000000    -0.435608   
O1       O      0.003700000000     0.739340000000     0.813230000000    -0.435608   
O1       O      0.503700000000     0.239340000000     0.313230000000    -0.435608   
O1       O      0.503700000000     0.239340000000     0.813230000000    -0.435608   
O1       O      0.503700000000     0.739340000000     0.313230000000    -0.435608   
O1       O      0.503700000000     0.739340000000     0.813230000000    -0.435608   
O2       O      0.239340000000     0.003700000000     0.443730000000    -0.435628   
O2       O      0.239340000000     0.003700000000     0.943730000000    -0.435628   
O2       O      0.239340000000     0.503700000000     0.443730000000    -0.435628   
O2       O      0.239340000000     0.503700000000     0.943730000000    -0.435628   
O2       O      0.739340000000     0.003700000000     0.443730000000    -0.435628   
O2       O      0.739340000000     0.003700000000     0.943730000000    -0.435628   
O2       O      0.739340000000     0.503700000000     0.443730000000    -0.435628   
O2       O      0.739340000000     0.503700000000     0.943730000000    -0.435628   
O3       O      0.313230000000     0.443730000000     0.003700000000    -0.435608   
O3       O      0.313230000000     0.443730000000     0.503700000000    -0.435608   
O3       O      0.313230000000     0.943730000000     0.003700000000    -0.435608   
O3       O      0.313230000000     0.943730000000     0.503700000000    -0.435608   
O3       O      0.813230000000     0.443730000000     0.003700000000    -0.435608   
O3       O      0.813230000000     0.443730000000     0.503700000000    -0.435608   
O3       O      0.813230000000     0.943730000000     0.003700000000    -0.435608   
O3       O      0.813230000000     0.943730000000     0.503700000000    -0.435608   
O4       O      0.443730000000     0.313230000000     0.239340000000    -0.435604   
O4       O      0.443730000000     0.313230000000     0.739340000000    -0.435604   
O4       O      0.443730000000     0.813230000000     0.239340000000    -0.435604   
O4       O      0.443730000000     0.813230000000     0.739340000000    -0.435604   
O4       O      0.943730000000     0.313230000000     0.239340000000    -0.435604   
O4       O      0.943730000000     0.313230000000     0.739340000000    -0.435604   
O4       O      0.943730000000     0.813230000000     0.239340000000    -0.435604   
O4       O      0.943730000000     0.813230000000     0.739340000000    -0.435604   
O5       O      0.003700000000     0.313230000000     0.443730000000    -0.435627   
O5       O      0.003700000000     0.313230000000     0.943730000000    -0.435627   
O5       O      0.003700000000     0.813230000000     0.443730000000    -0.435627   
O5       O      0.003700000000     0.813230000000     0.943730000000    -0.435627   
O5       O      0.503700000000     0.313230000000     0.443730000000    -0.435627   
O5       O      0.503700000000     0.313230000000     0.943730000000    -0.435627   
O5       O      0.503700000000     0.813230000000     0.443730000000    -0.435627   
O5       O      0.503700000000     0.813230000000     0.943730000000    -0.435627   
O6       O      0.239340000000     0.443730000000     0.313230000000     0.966186   
O6       O      0.239340000000     0.443730000000     0.813230000000     0.966186   
O6       O      0.239340000000     0.943730000000     0.313230000000     0.966186   
O6       O      0.239340000000     0.943730000000     0.813230000000     0.966186   
O6       O      0.739340000000     0.443730000000     0.313230000000     0.966186   
O6       O      0.739340000000     0.443730000000     0.813230000000     0.966186   
O6       O      0.739340000000     0.943730000000     0.313230000000     0.966186   
O6       O      0.739340000000     0.943730000000     0.813230000000     0.966186   
O7       O      0.313230000000     0.003700000000     0.239340000000     0.966185   
O7       O      0.313230000000     0.003700000000     0.739340000000     0.966185   
O7       O      0.313230000000     0.503700000000     0.239340000000     0.966185   
O7       O      0.313230000000     0.503700000000     0.739340000000     0.966185   
O7       O      0.813230000000     0.003700000000     0.239340000000     0.966185   
O7       O      0.813230000000     0.003700000000     0.739340000000     0.966185   
O7       O      0.813230000000     0.503700000000     0.239340000000     0.966185   
O7       O      0.813230000000     0.503700000000     0.739340000000     0.966185   
O8       O      0.443730000000     0.239340000000     0.003700000000     0.966209   
O8       O      0.443730000000     0.239340000000     0.503700000000     0.966209   
O8       O      0.443730000000     0.739340000000     0.003700000000     0.966209   
O8       O      0.443730000000     0.739340000000     0.503700000000     0.966209   
O8       O      0.943730000000     0.239340000000     0.003700000000     0.966209   
O8       O      0.943730000000     0.239340000000     0.503700000000     0.966209   
O8       O      0.943730000000     0.739340000000     0.003700000000     0.966209   
O8       O      0.943730000000     0.739340000000     0.503700000000     0.966209   
O9       O      0.003700000000     0.443730000000     0.239340000000     0.966209   
O9       O      0.003700000000     0.443730000000     0.739340000000     0.966209   
O9       O      0.003700000000     0.943730000000     0.239340000000     0.966209   
O9       O      0.003700000000     0.943730000000     0.739340000000     0.966209   
O9       O      0.503700000000     0.443730000000     0.239340000000     0.966209   
O9       O      0.503700000000     0.443730000000     0.739340000000     0.966209   
O9       O      0.503700000000     0.943730000000     0.239340000000     0.966209   
O9       O      0.503700000000     0.943730000000     0.739340000000     0.966209   
O10      O      0.239340000000     0.313230000000     0.003700000000     0.966185   
O10      O      0.239340000000     0.313230000000     0.503700000000     0.966185   
O10      O      0.239340000000     0.813230000000     0.003700000000     0.966185   
O10      O      0.239340000000     0.813230000000     0.503700000000     0.966185   
O10      O      0.739340000000     0.313230000000     0.003700000000     0.966185   
O10      O      0.739340000000     0.313230000000     0.503700000000     0.966185   
O10      O      0.739340000000     0.813230000000     0.003700000000     0.966185   
O10      O      0.739340000000     0.813230000000     0.503700000000     0.966185   
O11      O      0.313230000000     0.239340000000     0.443730000000     0.966209   
O11      O      0.313230000000     0.239340000000     0.943730000000     0.966209   
O11      O      0.313230000000     0.739340000000     0.443730000000     0.966209   
O11      O      0.313230000000     0.739340000000     0.943730000000     0.966209   
O11      O      0.813230000000     0.239340000000     0.443730000000     0.966209   
O11      O      0.813230000000     0.239340000000     0.943730000000     0.966209   
O11      O      0.813230000000     0.739340000000     0.443730000000     0.966209   
O11      O      0.813230000000     0.739340000000     0.943730000000     0.966209   
O12      O      0.443730000000     0.003700000000     0.313230000000     0.966186   
O12      O      0.443730000000     0.003700000000     0.813230000000     0.966186   
O12      O      0.443730000000     0.503700000000     0.313230000000     0.966186   
O12      O      0.443730000000     0.503700000000     0.813230000000     0.966186   
O12      O      0.943730000000     0.003700000000     0.313230000000     0.966186   
O12      O      0.943730000000     0.003700000000     0.813230000000     0.966186   
O12      O      0.943730000000     0.503700000000     0.313230000000     0.966186   
O12      O      0.943730000000     0.503700000000     0.813230000000     0.966186   
O13      O      0.260660000000     0.496300000000     0.186770000000     0.966209   
O13      O      0.260660000000     0.496300000000     0.686770000000     0.966209   
O13      O      0.260660000000     0.996300000000     0.186770000000     0.966209   
O13      O      0.260660000000     0.996300000000     0.686770000000     0.966209   
O13      O      0.760660000000     0.496300000000     0.186770000000     0.966209   
O13      O      0.760660000000     0.496300000000     0.686770000000     0.966209   
O13      O      0.760660000000     0.996300000000     0.186770000000     0.966209   
O13      O      0.760660000000     0.996300000000     0.686770000000     0.966209   
O14      O      0.496300000000     0.260660000000     0.056270000000     0.9662     
O14      O      0.496300000000     0.260660000000     0.556270000000     0.9662     
O14      O      0.496300000000     0.760660000000     0.056270000000     0.9662     
O14      O      0.496300000000     0.760660000000     0.556270000000     0.9662     
O14      O      0.996300000000     0.260660000000     0.056270000000     0.9662     
O14      O      0.996300000000     0.260660000000     0.556270000000     0.9662     
O14      O      0.996300000000     0.760660000000     0.056270000000     0.9662     
O14      O      0.996300000000     0.760660000000     0.556270000000     0.9662     
O15      O      0.056270000000     0.186770000000     0.496300000000     0.966208   
O15      O      0.056270000000     0.186770000000     0.996300000000     0.966208   
O15      O      0.056270000000     0.686770000000     0.496300000000     0.966208   
O15      O      0.056270000000     0.686770000000     0.996300000000     0.966208   
O15      O      0.556270000000     0.186770000000     0.496300000000     0.966208   
O15      O      0.556270000000     0.186770000000     0.996300000000     0.966208   
O15      O      0.556270000000     0.686770000000     0.496300000000     0.966208   
O15      O      0.556270000000     0.686770000000     0.996300000000     0.966208   
O16      O      0.186770000000     0.056270000000     0.260660000000     0.96621    
O16      O      0.186770000000     0.056270000000     0.760660000000     0.96621    
O16      O      0.186770000000     0.556270000000     0.260660000000     0.96621    
O16      O      0.186770000000     0.556270000000     0.760660000000     0.96621    
O16      O      0.686770000000     0.056270000000     0.260660000000     0.96621    
O16      O      0.686770000000     0.056270000000     0.760660000000     0.96621    
O16      O      0.686770000000     0.556270000000     0.260660000000     0.96621    
O16      O      0.686770000000     0.556270000000     0.760660000000     0.96621    
O17      O      0.186770000000     0.496300000000     0.056270000000     0.9662     
O17      O      0.186770000000     0.496300000000     0.556270000000     0.9662     
O17      O      0.186770000000     0.996300000000     0.056270000000     0.9662     
O17      O      0.186770000000     0.996300000000     0.556270000000     0.9662     
O17      O      0.686770000000     0.496300000000     0.056270000000     0.9662     
O17      O      0.686770000000     0.496300000000     0.556270000000     0.9662     
O17      O      0.686770000000     0.996300000000     0.056270000000     0.9662     
O17      O      0.686770000000     0.996300000000     0.556270000000     0.9662     
O18      O      0.056270000000     0.260660000000     0.186770000000     0.02653    
O18      O      0.056270000000     0.260660000000     0.686770000000     0.02653    
O18      O      0.056270000000     0.760660000000     0.186770000000     0.02653    
O18      O      0.056270000000     0.760660000000     0.686770000000     0.02653    
O18      O      0.556270000000     0.260660000000     0.186770000000     0.02653    
O18      O      0.556270000000     0.260660000000     0.686770000000     0.02653    
O18      O      0.556270000000     0.760660000000     0.186770000000     0.02653    
O18      O      0.556270000000     0.760660000000     0.686770000000     0.02653    
O19      O      0.496300000000     0.186770000000     0.260660000000     0.02653    
O19      O      0.496300000000     0.186770000000     0.760660000000     0.02653    
O19      O      0.496300000000     0.686770000000     0.260660000000     0.02653    
O19      O      0.496300000000     0.686770000000     0.760660000000     0.02653    
O19      O      0.996300000000     0.186770000000     0.260660000000     0.02653    
O19      O      0.996300000000     0.186770000000     0.760660000000     0.02653    
O19      O      0.996300000000     0.686770000000     0.260660000000     0.02653    
O19      O      0.996300000000     0.686770000000     0.760660000000     0.02653    
O20      O      0.260660000000     0.056270000000     0.496300000000     0.026531   
O20      O      0.260660000000     0.056270000000     0.996300000000     0.026531   
O20      O      0.260660000000     0.556270000000     0.496300000000     0.026531   
O20      O      0.260660000000     0.556270000000     0.996300000000     0.026531   
O20      O      0.760660000000     0.056270000000     0.496300000000     0.026531   
O20      O      0.760660000000     0.056270000000     0.996300000000     0.026531   
O20      O      0.760660000000     0.556270000000     0.496300000000     0.026531   
O20      O      0.760660000000     0.556270000000     0.996300000000     0.026531   
O21      O      0.056270000000     0.496300000000     0.260660000000     0.0265313  
O21      O      0.056270000000     0.496300000000     0.760660000000     0.0265313  
O21      O      0.056270000000     0.996300000000     0.260660000000     0.0265313  
O21      O      0.056270000000     0.996300000000     0.760660000000     0.0265313  
O21      O      0.556270000000     0.496300000000     0.260660000000     0.0265313  
O21      O      0.556270000000     0.496300000000     0.760660000000     0.0265313  
O21      O      0.556270000000     0.996300000000     0.260660000000     0.0265313  
O21      O      0.556270000000     0.996300000000     0.760660000000     0.0265313  
O22      O      0.186770000000     0.260660000000     0.496300000000     0.0265308  
O22      O      0.186770000000     0.260660000000     0.996300000000     0.0265308  
O22      O      0.186770000000     0.760660000000     0.496300000000     0.0265308  
O22      O      0.186770000000     0.760660000000     0.996300000000     0.0265308  
O22      O      0.686770000000     0.260660000000     0.496300000000     0.0265308  
O22      O      0.686770000000     0.260660000000     0.996300000000     0.0265308  
O22      O      0.686770000000     0.760660000000     0.496300000000     0.0265308  
O22      O      0.686770000000     0.760660000000     0.996300000000     0.0265308  
O23      O      0.260660000000     0.186770000000     0.056270000000     0.0265301  
O23      O      0.260660000000     0.186770000000     0.556270000000     0.0265301  
O23      O      0.260660000000     0.686770000000     0.056270000000     0.0265301  
O23      O      0.260660000000     0.686770000000     0.556270000000     0.0265301  
O23      O      0.760660000000     0.186770000000     0.056270000000     0.0265301  
O23      O      0.760660000000     0.186770000000     0.556270000000     0.0265301  
O23      O      0.760660000000     0.686770000000     0.056270000000     0.0265301  
O23      O      0.760660000000     0.686770000000     0.556270000000     0.0265301  
O24      O      0.496300000000     0.056270000000     0.186770000000     0.0265313  
O24      O      0.496300000000     0.056270000000     0.686770000000     0.0265313  
O24      O      0.496300000000     0.556270000000     0.186770000000     0.0265313  
O24      O      0.496300000000     0.556270000000     0.686770000000     0.0265313  
O24      O      0.996300000000     0.056270000000     0.186770000000     0.0265313  
O24      O      0.996300000000     0.056270000000     0.686770000000     0.0265313  
O24      O      0.996300000000     0.556270000000     0.186770000000     0.0265313  
O24      O      0.996300000000     0.556270000000     0.686770000000     0.0265313  
O25      O      0.496300000000     0.260660000000     0.186770000000     0.0265301  
O25      O      0.496300000000     0.260660000000     0.686770000000     0.0265301  
O25      O      0.496300000000     0.760660000000     0.186770000000     0.0265301  
O25      O      0.496300000000     0.760660000000     0.686770000000     0.0265301  
O25      O      0.996300000000     0.260660000000     0.186770000000     0.0265301  
O25      O      0.996300000000     0.260660000000     0.686770000000     0.0265301  
O25      O      0.996300000000     0.760660000000     0.186770000000     0.0265301  
O25      O      0.996300000000     0.760660000000     0.686770000000     0.0265301  
O26      O      0.260660000000     0.496300000000     0.056270000000     0.0265313  
O26      O      0.260660000000     0.496300000000     0.556270000000     0.0265313  
O26      O      0.260660000000     0.996300000000     0.056270000000     0.0265313  
O26      O      0.260660000000     0.996300000000     0.556270000000     0.0265313  
O26      O      0.760660000000     0.496300000000     0.056270000000     0.0265313  
O26      O      0.760660000000     0.496300000000     0.556270000000     0.0265313  
O26      O      0.760660000000     0.996300000000     0.056270000000     0.0265313  
O26      O      0.760660000000     0.996300000000     0.556270000000     0.0265313  
O27      O      0.186770000000     0.056270000000     0.496300000000     0.02653    
O27      O      0.186770000000     0.056270000000     0.996300000000     0.02653    
O27      O      0.186770000000     0.556270000000     0.496300000000     0.02653    
O27      O      0.186770000000     0.556270000000     0.996300000000     0.02653    
O27      O      0.686770000000     0.056270000000     0.496300000000     0.02653    
O27      O      0.686770000000     0.056270000000     0.996300000000     0.02653    
O27      O      0.686770000000     0.556270000000     0.496300000000     0.02653    
O27      O      0.686770000000     0.556270000000     0.996300000000     0.02653    
O28      O      0.056270000000     0.186770000000     0.260660000000     0.02653    
O28      O      0.056270000000     0.186770000000     0.760660000000     0.02653    
O28      O      0.056270000000     0.686770000000     0.260660000000     0.02653    
O28      O      0.056270000000     0.686770000000     0.760660000000     0.02653    
O28      O      0.556270000000     0.186770000000     0.260660000000     0.02653    
O28      O      0.556270000000     0.186770000000     0.760660000000     0.02653    
O28      O      0.556270000000     0.686770000000     0.260660000000     0.02653    
O28      O      0.556270000000     0.686770000000     0.760660000000     0.02653    
O29      O      0.496300000000     0.186770000000     0.056270000000     0.026531   
O29      O      0.496300000000     0.186770000000     0.556270000000     0.026531   
O29      O      0.496300000000     0.686770000000     0.056270000000     0.026531   
O29      O      0.496300000000     0.686770000000     0.556270000000     0.026531   
O29      O      0.996300000000     0.186770000000     0.056270000000     0.026531   
O29      O      0.996300000000     0.186770000000     0.556270000000     0.026531   
O29      O      0.996300000000     0.686770000000     0.056270000000     0.026531   
O29      O      0.996300000000     0.686770000000     0.556270000000     0.026531   
O30      O      0.260660000000     0.056270000000     0.186770000000     0.0265302  
O30      O      0.260660000000     0.056270000000     0.686770000000     0.0265302  
O30      O      0.260660000000     0.556270000000     0.186770000000     0.0265302  
O30      O      0.260660000000     0.556270000000     0.686770000000     0.0265302  
O30      O      0.760660000000     0.056270000000     0.186770000000     0.0265302  
O30      O      0.760660000000     0.056270000000     0.686770000000     0.0265302  
O30      O      0.760660000000     0.556270000000     0.186770000000     0.0265302  
O30      O      0.760660000000     0.556270000000     0.686770000000     0.0265302  
O31      O      0.186770000000     0.496300000000     0.260660000000     0.0265302  
O31      O      0.186770000000     0.496300000000     0.760660000000     0.0265302  
O31      O      0.186770000000     0.996300000000     0.260660000000     0.0265302  
O31      O      0.186770000000     0.996300000000     0.760660000000     0.0265302  
O31      O      0.686770000000     0.496300000000     0.260660000000     0.0265302  
O31      O      0.686770000000     0.496300000000     0.760660000000     0.0265302  
O31      O      0.686770000000     0.996300000000     0.260660000000     0.0265302  
O31      O      0.686770000000     0.996300000000     0.760660000000     0.0265302  
O32      O      0.056270000000     0.260660000000     0.496300000000     0.0265115  
O32      O      0.056270000000     0.260660000000     0.996300000000     0.0265115  
O32      O      0.056270000000     0.760660000000     0.496300000000     0.0265115  
O32      O      0.056270000000     0.760660000000     0.996300000000     0.0265115  
O32      O      0.556270000000     0.260660000000     0.496300000000     0.0265115  
O32      O      0.556270000000     0.260660000000     0.996300000000     0.0265115  
O32      O      0.556270000000     0.760660000000     0.496300000000     0.0265115  
O32      O      0.556270000000     0.760660000000     0.996300000000     0.0265115  
O33      O      0.496300000000     0.056270000000     0.260660000000     0.0265116  
O33      O      0.496300000000     0.056270000000     0.760660000000     0.0265116  
O33      O      0.496300000000     0.556270000000     0.260660000000     0.0265116  
O33      O      0.496300000000     0.556270000000     0.760660000000     0.0265116  
O33      O      0.996300000000     0.056270000000     0.260660000000     0.0265116  
O33      O      0.996300000000     0.056270000000     0.760660000000     0.0265116  
O33      O      0.996300000000     0.556270000000     0.260660000000     0.0265116  
O33      O      0.996300000000     0.556270000000     0.760660000000     0.0265116  
O34      O      0.260660000000     0.186770000000     0.496300000000     0.0265311  
O34      O      0.260660000000     0.186770000000     0.996300000000     0.0265311  
O34      O      0.260660000000     0.686770000000     0.496300000000     0.0265311  
O34      O      0.260660000000     0.686770000000     0.996300000000     0.0265311  
O34      O      0.760660000000     0.186770000000     0.496300000000     0.0265311  
O34      O      0.760660000000     0.186770000000     0.996300000000     0.0265311  
O34      O      0.760660000000     0.686770000000     0.496300000000     0.0265311  
O34      O      0.760660000000     0.686770000000     0.996300000000     0.0265311  
O35      O      0.186770000000     0.260660000000     0.056270000000     0.0265118  
O35      O      0.186770000000     0.260660000000     0.556270000000     0.0265118  
O35      O      0.186770000000     0.760660000000     0.056270000000     0.0265118  
O35      O      0.186770000000     0.760660000000     0.556270000000     0.0265118  
O35      O      0.686770000000     0.260660000000     0.056270000000     0.0265118  
O35      O      0.686770000000     0.260660000000     0.556270000000     0.0265118  
O35      O      0.686770000000     0.760660000000     0.056270000000     0.0265118  
O35      O      0.686770000000     0.760660000000     0.556270000000     0.0265118  
O36      O      0.056270000000     0.496300000000     0.186770000000     0.026531   
O36      O      0.056270000000     0.496300000000     0.686770000000     0.026531   
O36      O      0.056270000000     0.996300000000     0.186770000000     0.026531   
O36      O      0.056270000000     0.996300000000     0.686770000000     0.026531   
O36      O      0.556270000000     0.496300000000     0.186770000000     0.026531   
O36      O      0.556270000000     0.496300000000     0.686770000000     0.026531   
O36      O      0.556270000000     0.996300000000     0.186770000000     0.026531   
O36      O      0.556270000000     0.996300000000     0.686770000000     0.026531   
O37      O      0.239340000000     0.003700000000     0.313230000000     0.0265118  
O37      O      0.239340000000     0.003700000000     0.813230000000     0.0265118  
O37      O      0.239340000000     0.503700000000     0.313230000000     0.0265118  
O37      O      0.239340000000     0.503700000000     0.813230000000     0.0265118  
O37      O      0.739340000000     0.003700000000     0.313230000000     0.0265118  
O37      O      0.739340000000     0.003700000000     0.813230000000     0.0265118  
O37      O      0.739340000000     0.503700000000     0.313230000000     0.0265118  
O37      O      0.739340000000     0.503700000000     0.813230000000     0.0265118  
O38      O      0.003700000000     0.239340000000     0.443730000000     0.0265116  
O38      O      0.003700000000     0.239340000000     0.943730000000     0.0265116  
O38      O      0.003700000000     0.739340000000     0.443730000000     0.0265116  
O38      O      0.003700000000     0.739340000000     0.943730000000     0.0265116  
O38      O      0.503700000000     0.239340000000     0.443730000000     0.0265116  
O38      O      0.503700000000     0.239340000000     0.943730000000     0.0265116  
O38      O      0.503700000000     0.739340000000     0.443730000000     0.0265116  
O38      O      0.503700000000     0.739340000000     0.943730000000     0.0265116  
O39      O      0.443730000000     0.313230000000     0.003700000000     0.0265302  
O39      O      0.443730000000     0.313230000000     0.503700000000     0.0265302  
O39      O      0.443730000000     0.813230000000     0.003700000000     0.0265302  
O39      O      0.443730000000     0.813230000000     0.503700000000     0.0265302  
O39      O      0.943730000000     0.313230000000     0.003700000000     0.0265302  
O39      O      0.943730000000     0.313230000000     0.503700000000     0.0265302  
O39      O      0.943730000000     0.813230000000     0.003700000000     0.0265302  
O39      O      0.943730000000     0.813230000000     0.503700000000     0.0265302  
O40      O      0.313230000000     0.443730000000     0.239340000000     0.0265302  
O40      O      0.313230000000     0.443730000000     0.739340000000     0.0265302  
O40      O      0.313230000000     0.943730000000     0.239340000000     0.0265302  
O40      O      0.313230000000     0.943730000000     0.739340000000     0.0265302  
O40      O      0.813230000000     0.443730000000     0.239340000000     0.0265302  
O40      O      0.813230000000     0.443730000000     0.739340000000     0.0265302  
O40      O      0.813230000000     0.943730000000     0.239340000000     0.0265302  
O40      O      0.813230000000     0.943730000000     0.739340000000     0.0265302  
O41      O      0.313230000000     0.003700000000     0.443730000000     0.0265115  
O41      O      0.313230000000     0.003700000000     0.943730000000     0.0265115  
O41      O      0.313230000000     0.503700000000     0.443730000000     0.0265115  
O41      O      0.313230000000     0.503700000000     0.943730000000     0.0265115  
O41      O      0.813230000000     0.003700000000     0.443730000000     0.0265115  
O41      O      0.813230000000     0.003700000000     0.943730000000     0.0265115  
O41      O      0.813230000000     0.503700000000     0.443730000000     0.0265115  
O41      O      0.813230000000     0.503700000000     0.943730000000     0.0265115  
O42      O      0.443730000000     0.239340000000     0.313230000000     0.421289   
O42      O      0.443730000000     0.239340000000     0.813230000000     0.421289   
O42      O      0.443730000000     0.739340000000     0.313230000000     0.421289   
O42      O      0.443730000000     0.739340000000     0.813230000000     0.421289   
O42      O      0.943730000000     0.239340000000     0.313230000000     0.421289   
O42      O      0.943730000000     0.239340000000     0.813230000000     0.421289   
O42      O      0.943730000000     0.739340000000     0.313230000000     0.421289   
O42      O      0.943730000000     0.739340000000     0.813230000000     0.421289   
O43      O      0.003700000000     0.313230000000     0.239340000000    -0.163796   
O43      O      0.003700000000     0.313230000000     0.739340000000    -0.163796   
O43      O      0.003700000000     0.813230000000     0.239340000000    -0.163796   
O43      O      0.003700000000     0.813230000000     0.739340000000    -0.163796   
O43      O      0.503700000000     0.313230000000     0.239340000000    -0.163796   
O43      O      0.503700000000     0.313230000000     0.739340000000    -0.163796   
O43      O      0.503700000000     0.813230000000     0.239340000000    -0.163796   
O43      O      0.503700000000     0.813230000000     0.739340000000    -0.163796   
O44      O      0.239340000000     0.443730000000     0.003700000000     0.421291   
O44      O      0.239340000000     0.443730000000     0.503700000000     0.421291   
O44      O      0.239340000000     0.943730000000     0.003700000000     0.421291   
O44      O      0.239340000000     0.943730000000     0.503700000000     0.421291   
O44      O      0.739340000000     0.443730000000     0.003700000000     0.421291   
O44      O      0.739340000000     0.443730000000     0.503700000000     0.421291   
O44      O      0.739340000000     0.943730000000     0.003700000000     0.421291   
O44      O      0.739340000000     0.943730000000     0.503700000000     0.421291   
O45      O      0.443730000000     0.003700000000     0.239340000000    -0.163797   
O45      O      0.443730000000     0.003700000000     0.739340000000    -0.163797   
O45      O      0.443730000000     0.503700000000     0.239340000000    -0.163797   
O45      O      0.443730000000     0.503700000000     0.739340000000    -0.163797   
O45      O      0.943730000000     0.003700000000     0.239340000000    -0.163797   
O45      O      0.943730000000     0.003700000000     0.739340000000    -0.163797   
O45      O      0.943730000000     0.503700000000     0.239340000000    -0.163797   
O45      O      0.943730000000     0.503700000000     0.739340000000    -0.163797   
O46      O      0.313230000000     0.239340000000     0.003700000000     0.421291   
O46      O      0.313230000000     0.239340000000     0.503700000000     0.421291   
O46      O      0.313230000000     0.739340000000     0.003700000000     0.421291   
O46      O      0.313230000000     0.739340000000     0.503700000000     0.421291   
O46      O      0.813230000000     0.239340000000     0.003700000000     0.421291   
O46      O      0.813230000000     0.239340000000     0.503700000000     0.421291   
O46      O      0.813230000000     0.739340000000     0.003700000000     0.421291   
O46      O      0.813230000000     0.739340000000     0.503700000000     0.421291   
O47      O      0.239340000000     0.313230000000     0.443730000000    -0.163795   
O47      O      0.239340000000     0.313230000000     0.943730000000    -0.163795   
O47      O      0.239340000000     0.813230000000     0.443730000000    -0.163795   
O47      O      0.239340000000     0.813230000000     0.943730000000    -0.163795   
O47      O      0.739340000000     0.313230000000     0.443730000000    -0.163795   
O47      O      0.739340000000     0.313230000000     0.943730000000    -0.163795   
O47      O      0.739340000000     0.813230000000     0.443730000000    -0.163795   
O47      O      0.739340000000     0.813230000000     0.943730000000    -0.163795   
O48      O      0.003700000000     0.443730000000     0.313230000000     0.421289   
O48      O      0.003700000000     0.443730000000     0.813230000000     0.421289   
O48      O      0.003700000000     0.943730000000     0.313230000000     0.421289   
O48      O      0.003700000000     0.943730000000     0.813230000000     0.421289   
O48      O      0.503700000000     0.443730000000     0.313230000000     0.421289   
O48      O      0.503700000000     0.443730000000     0.813230000000     0.421289   
O48      O      0.503700000000     0.943730000000     0.313230000000     0.421289   
O48      O      0.503700000000     0.943730000000     0.813230000000     0.421289   


