data_[CoreMOF]XADDEN_manual

_audit_creation_method RASPA-1.0
_audit_creation_date 2025-1-26
_audit_author_name ''

_cell_length_a    37.302
_cell_length_b    37.302
_cell_length_c    37.302
_cell_angle_alpha 60
_cell_angle_beta  60
_cell_angle_gamma 60
_cell_volume      36701.3

_symmetry_cell_setting          triclinic
_symmetry_space_group_name_Hall 'P 1'
_symmetry_space_group_name_H-M  'P 1'
_symmetry_Int_Tables_number     1

_symmetry_equiv_pos_as_xyz 'x,y,z'

loop_
_atom_site_label
_atom_site_type_symbol
_atom_site_fract_x
_atom_site_fract_y
_atom_site_fract_z
_atom_site_charge
Cu1      Cu     0.034930000000     0.250000000000     0.250000000000     0.966184   
Cu2      Cu     0.250000000000     0.034930000000     0.465070000000     0.966186   
Cu3      Cu     0.250000000000     0.465070000000     0.034930000000     0.966207   
Cu4      Cu     0.465070000000     0.250000000000     0.250000000000     0.966209   
Cu5      Cu     0.034930000000     0.250000000000     0.465070000000     0.966186   
Cu6      Cu     0.250000000000     0.465070000000     0.250000000000     0.966209   
Cu7      Cu     0.250000000000     0.034930000000     0.250000000000     0.966184   
Cu8      Cu     0.465070000000     0.250000000000     0.034930000000     0.966207   
Cu9      Cu     0.034930000000     0.465070000000     0.250000000000     0.966198   
Cu10     Cu     0.250000000000     0.250000000000     0.034930000000     0.966205   
Cu11     Cu     0.250000000000     0.250000000000     0.465070000000     0.966208   
Cu12     Cu     0.465070000000     0.034930000000     0.250000000000     0.966198   
H1       H      0.386300000000     0.233700000000     0.386300000000     0.0265303  
H2       H      0.233700000000     0.386300000000     0.493700000000     0.0265304  
H3       H      0.386300000000     0.493700000000     0.386300000000     0.0265313  
H4       H      0.493700000000     0.386300000000     0.233700000000     0.0265313  
H5       H      0.386300000000     0.386300000000     0.493700000000     0.0265313  
H6       H      0.233700000000     0.493700000000     0.386300000000     0.0265305  
H7       H      0.386300000000     0.386300000000     0.233700000000     0.0265313  
H8       H      0.493700000000     0.233700000000     0.386300000000     0.0265305  
H9       H      0.386300000000     0.493700000000     0.233700000000     0.0265313  
H10      H      0.233700000000     0.386300000000     0.386300000000     0.0265303  
H11      H      0.386300000000     0.233700000000     0.493700000000     0.0265304  
H12      H      0.493700000000     0.386300000000     0.386300000000     0.0265313  
H13      H      0.266300000000     0.113700000000     0.113700000000     0.0265308  
H14      H      0.113700000000     0.266300000000     0.006300000000     0.026529   
H15      H      0.006300000000     0.113700000000     0.113700000000     0.0265119  
H16      H      0.113700000000     0.006300000000     0.266300000000     0.0265114  
H17      H      0.113700000000     0.113700000000     0.006300000000     0.0265303  
H18      H      0.006300000000     0.266300000000     0.113700000000     0.0265117  
H19      H      0.113700000000     0.113700000000     0.266300000000     0.0265316  
H20      H      0.266300000000     0.006300000000     0.113700000000     0.0265117  
H21      H      0.006300000000     0.113700000000     0.266300000000     0.0265114  
H22      H      0.113700000000     0.266300000000     0.113700000000     0.0265308  
H23      H      0.266300000000     0.113700000000     0.006300000000     0.026529   
H24      H      0.113700000000     0.006300000000     0.113700000000     0.0265119  
C1       C      0.465450000000     0.237130000000     0.331970000000     0.421289   
C2       C      0.443700000000     0.233560000000     0.379040000000    -0.163796   
C3       C      0.237130000000     0.465450000000     0.465450000000     0.421289   
C4       C      0.233560000000     0.443700000000     0.443700000000    -0.163796   
C5       C      0.331970000000     0.465450000000     0.465450000000     0.421289   
C6       C      0.379040000000     0.443700000000     0.443700000000    -0.163794   
C7       C      0.465450000000     0.331970000000     0.237130000000     0.421289   
C8       C      0.443700000000     0.379040000000     0.233560000000    -0.163794   
C9       C      0.465450000000     0.331970000000     0.465450000000     0.421289   
C10      C      0.443700000000     0.379040000000     0.443700000000    -0.163794   
C11      C      0.237130000000     0.465450000000     0.331970000000     0.421289   
C12      C      0.233560000000     0.443700000000     0.379040000000    -0.163796   
C13      C      0.331970000000     0.465450000000     0.237130000000     0.421289   
C14      C      0.379040000000     0.443700000000     0.233560000000    -0.163794   
C15      C      0.465450000000     0.237130000000     0.465450000000     0.421289   
C16      C      0.443700000000     0.233560000000     0.443700000000    -0.163796   
C17      C      0.465450000000     0.465450000000     0.237130000000     0.421289   
C18      C      0.443700000000     0.443700000000     0.233560000000    -0.163794   
C19      C      0.237130000000     0.331970000000     0.465450000000     0.421289   
C20      C      0.233560000000     0.379040000000     0.443700000000    -0.163796   
C21      C      0.331970000000     0.237130000000     0.465450000000     0.421289   
C22      C      0.379040000000     0.233560000000     0.443700000000    -0.163796   
C23      C      0.465450000000     0.465450000000     0.331970000000     0.421289   
C24      C      0.443700000000     0.443700000000     0.379040000000    -0.163794   
C25      C      0.262870000000     0.034550000000     0.168030000000     0.421266   
C26      C      0.266440000000     0.056300000000     0.120960000000    -0.163796   
C27      C      0.034550000000     0.262870000000     0.034550000000     0.421259   
C28      C      0.056300000000     0.266440000000     0.056300000000    -0.163795   
C29      C      0.034550000000     0.168030000000     0.034550000000     0.421248   
C30      C      0.056300000000     0.120960000000     0.056300000000    -0.163789   
C31      C      0.168030000000     0.034550000000     0.262870000000     0.421257   
C32      C      0.120960000000     0.056300000000     0.266440000000    -0.163792   
C33      C      0.168030000000     0.034550000000     0.034550000000     0.421248   
C34      C      0.120960000000     0.056300000000     0.056300000000    -0.163789   
C35      C      0.034550000000     0.262870000000     0.168030000000     0.421266   
C36      C      0.056300000000     0.266440000000     0.120960000000    -0.163796   
C37      C      0.034550000000     0.168030000000     0.262870000000     0.421257   
C38      C      0.056300000000     0.120960000000     0.266440000000    -0.163792   
C39      C      0.262870000000     0.034550000000     0.034550000000     0.421259   
C40      C      0.266440000000     0.056300000000     0.056300000000    -0.163795   
C41      C      0.034550000000     0.034550000000     0.262870000000     0.421203   
C42      C      0.056300000000     0.056300000000     0.266440000000    -0.163786   
C43      C      0.168030000000     0.262870000000     0.034550000000     0.421284   
C44      C      0.120960000000     0.266440000000     0.056300000000    -0.163794   
C45      C      0.262870000000     0.168030000000     0.034550000000     0.421284   
C46      C      0.266440000000     0.120960000000     0.056300000000    -0.163794   
C47      C      0.034550000000     0.034550000000     0.168030000000     0.421201   
C48      C      0.056300000000     0.056300000000     0.120960000000    -0.163784   
C49      C      0.400750000000     0.233610000000     0.400750000000     0.1041     
C50      C      0.233610000000     0.400750000000     0.464890000000     0.1041     
C51      C      0.400750000000     0.464890000000     0.400750000000     0.1041     
C52      C      0.464890000000     0.400750000000     0.233610000000     0.1041     
C53      C      0.400750000000     0.400750000000     0.464890000000     0.1041     
C54      C      0.233610000000     0.464890000000     0.400750000000     0.1041     
C55      C      0.400750000000     0.400750000000     0.233610000000     0.1041     
C56      C      0.464890000000     0.233610000000     0.400750000000     0.1041     
C57      C      0.400750000000     0.464890000000     0.233610000000     0.1041     
C58      C      0.233610000000     0.400750000000     0.400750000000     0.1041     
C59      C      0.400750000000     0.233610000000     0.464890000000     0.1041     
C60      C      0.464890000000     0.400750000000     0.400750000000     0.1041     
C61      C      0.266390000000     0.099250000000     0.099250000000     0.104096   
C62      C      0.099250000000     0.266390000000     0.035110000000     0.104095   
C63      C      0.035110000000     0.099250000000     0.099250000000     0.104079   
C64      C      0.099250000000     0.035110000000     0.266390000000     0.104082   
C65      C      0.099250000000     0.099250000000     0.035110000000     0.104084   
C66      C      0.035110000000     0.266390000000     0.099250000000     0.104094   
C67      C      0.099250000000     0.099250000000     0.266390000000     0.104087   
C68      C      0.266390000000     0.035110000000     0.099250000000     0.104094   
C69      C      0.035110000000     0.099250000000     0.266390000000     0.104082   
C70      C      0.099250000000     0.266390000000     0.099250000000     0.104096   
C71      C      0.266390000000     0.099250000000     0.035110000000     0.104095   
C72      C      0.099250000000     0.035110000000     0.099250000000     0.104079   
O1       O      0.003700000000     0.239340000000     0.313230000000    -0.435641   
O2       O      0.239340000000     0.003700000000     0.443730000000    -0.435641   
O3       O      0.313230000000     0.443730000000     0.003700000000    -0.435606   
O4       O      0.443730000000     0.313230000000     0.239340000000    -0.435604   
O5       O      0.003700000000     0.313230000000     0.443730000000    -0.435633   
O6       O      0.239340000000     0.443730000000     0.313230000000    -0.435605   
O7       O      0.313230000000     0.003700000000     0.239340000000    -0.435634   
O8       O      0.443730000000     0.239340000000     0.003700000000    -0.435608   
O9       O      0.003700000000     0.443730000000     0.239340000000    -0.435628   
O10      O      0.239340000000     0.313230000000     0.003700000000    -0.435608   
O11      O      0.313230000000     0.239340000000     0.443730000000    -0.435604   
O12      O      0.443730000000     0.003700000000     0.313230000000    -0.435627   
O13      O      0.260660000000     0.496300000000     0.186770000000    -0.435604   
O14      O      0.496300000000     0.260660000000     0.056270000000    -0.435603   
O15      O      0.056270000000     0.186770000000     0.496300000000    -0.435601   
O16      O      0.186770000000     0.056270000000     0.260660000000    -0.4356     
O17      O      0.186770000000     0.496300000000     0.056270000000    -0.435605   
O18      O      0.056270000000     0.260660000000     0.186770000000    -0.4356     
O19      O      0.496300000000     0.186770000000     0.260660000000    -0.435605   
O20      O      0.260660000000     0.056270000000     0.496300000000    -0.435601   
O21      O      0.056270000000     0.496300000000     0.260660000000    -0.435607   
O22      O      0.186770000000     0.260660000000     0.496300000000    -0.435605   
O23      O      0.260660000000     0.186770000000     0.056270000000    -0.435604   
O24      O      0.496300000000     0.056270000000     0.186770000000    -0.435607   
O25      O      0.496300000000     0.260660000000     0.186770000000    -0.435604   
O26      O      0.260660000000     0.496300000000     0.056270000000    -0.435603   
O27      O      0.186770000000     0.056270000000     0.496300000000    -0.435601   
O28      O      0.056270000000     0.186770000000     0.260660000000    -0.4356     
O29      O      0.496300000000     0.186770000000     0.056270000000    -0.435605   
O30      O      0.260660000000     0.056270000000     0.186770000000    -0.4356     
O31      O      0.186770000000     0.496300000000     0.260660000000    -0.435605   
O32      O      0.056270000000     0.260660000000     0.496300000000    -0.435601   
O33      O      0.496300000000     0.056270000000     0.260660000000    -0.435607   
O34      O      0.260660000000     0.186770000000     0.496300000000    -0.435605   
O35      O      0.186770000000     0.260660000000     0.056270000000    -0.435604   
O36      O      0.056270000000     0.496300000000     0.186770000000    -0.435607   
O37      O      0.239340000000     0.003700000000     0.313230000000    -0.435641   
O38      O      0.003700000000     0.239340000000     0.443730000000    -0.435641   
O39      O      0.443730000000     0.313230000000     0.003700000000    -0.435606   
O40      O      0.313230000000     0.443730000000     0.239340000000    -0.435604   
O41      O      0.313230000000     0.003700000000     0.443730000000    -0.435633   
O42      O      0.443730000000     0.239340000000     0.313230000000    -0.435605   
O43      O      0.003700000000     0.313230000000     0.239340000000    -0.435634   
O44      O      0.239340000000     0.443730000000     0.003700000000    -0.435608   
O45      O      0.443730000000     0.003700000000     0.239340000000    -0.435628   
O46      O      0.313230000000     0.239340000000     0.003700000000    -0.435608   
O47      O      0.239340000000     0.313230000000     0.443730000000    -0.435604   
O48      O      0.003700000000     0.443730000000     0.313230000000    -0.435627   
Cu1      Cu     0.034930000000     0.250000000000     0.750000000000     0.966186   
Cu2      Cu     0.250000000000     0.034930000000     0.965070000000     0.966185   
Cu3      Cu     0.250000000000     0.465070000000     0.534930000000     0.966209   
Cu4      Cu     0.465070000000     0.250000000000     0.750000000000     0.966209   
Cu5      Cu     0.034930000000     0.250000000000     0.965070000000     0.966185   
Cu6      Cu     0.250000000000     0.465070000000     0.750000000000     0.966209   
Cu7      Cu     0.250000000000     0.034930000000     0.750000000000     0.966186   
Cu8      Cu     0.465070000000     0.250000000000     0.534930000000     0.966209   
Cu9      Cu     0.034930000000     0.465070000000     0.750000000000     0.9662     
Cu10     Cu     0.250000000000     0.250000000000     0.534930000000     0.966208   
Cu11     Cu     0.250000000000     0.250000000000     0.965070000000     0.96621    
Cu12     Cu     0.465070000000     0.034930000000     0.750000000000     0.9662     
H1       H      0.386300000000     0.233700000000     0.886300000000     0.02653    
H2       H      0.233700000000     0.386300000000     0.993700000000     0.02653    
H3       H      0.386300000000     0.493700000000     0.886300000000     0.026531   
H4       H      0.493700000000     0.386300000000     0.733700000000     0.0265313  
H5       H      0.386300000000     0.386300000000     0.993700000000     0.0265308  
H6       H      0.233700000000     0.493700000000     0.886300000000     0.0265301  
H7       H      0.386300000000     0.386300000000     0.733700000000     0.0265313  
H8       H      0.493700000000     0.233700000000     0.886300000000     0.0265301  
H9       H      0.386300000000     0.493700000000     0.733700000000     0.0265313  
H10      H      0.233700000000     0.386300000000     0.886300000000     0.02653    
H11      H      0.386300000000     0.233700000000     0.993700000000     0.02653    
H12      H      0.493700000000     0.386300000000     0.886300000000     0.026531   
H13      H      0.266300000000     0.113700000000     0.613700000000     0.0265302  
H14      H      0.113700000000     0.266300000000     0.506300000000     0.0265302  
H15      H      0.006300000000     0.113700000000     0.613700000000     0.0265115  
H16      H      0.113700000000     0.006300000000     0.766300000000     0.0265116  
H17      H      0.113700000000     0.113700000000     0.506300000000     0.0265311  
H18      H      0.006300000000     0.266300000000     0.613700000000     0.0265118  
H19      H      0.113700000000     0.113700000000     0.766300000000     0.026531   
H20      H      0.266300000000     0.006300000000     0.613700000000     0.0265118  
H21      H      0.006300000000     0.113700000000     0.766300000000     0.0265116  
H22      H      0.113700000000     0.266300000000     0.613700000000     0.0265302  
H23      H      0.266300000000     0.113700000000     0.506300000000     0.0265302  
H24      H      0.113700000000     0.006300000000     0.613700000000     0.0265115  
C1       C      0.465450000000     0.237130000000     0.831970000000     0.421289   
C2       C      0.443700000000     0.233560000000     0.879040000000    -0.163796   
C3       C      0.237130000000     0.465450000000     0.965450000000     0.421291   
C4       C      0.233560000000     0.443700000000     0.943700000000    -0.163797   
C5       C      0.331970000000     0.465450000000     0.965450000000     0.421291   
C6       C      0.379040000000     0.443700000000     0.943700000000    -0.163795   
C7       C      0.465450000000     0.331970000000     0.737130000000     0.421289   
C8       C      0.443700000000     0.379040000000     0.733560000000    -0.163794   
C9       C      0.465450000000     0.331970000000     0.965450000000     0.421291   
C10      C      0.443700000000     0.379040000000     0.943700000000    -0.163795   
C11      C      0.237130000000     0.465450000000     0.831970000000     0.421289   
C12      C      0.233560000000     0.443700000000     0.879040000000    -0.163796   
C13      C      0.331970000000     0.465450000000     0.737130000000     0.421289   
C14      C      0.379040000000     0.443700000000     0.733560000000    -0.163794   
C15      C      0.465450000000     0.237130000000     0.965450000000     0.421291   
C16      C      0.443700000000     0.233560000000     0.943700000000    -0.163797   
C17      C      0.465450000000     0.465450000000     0.737130000000     0.421289   
C18      C      0.443700000000     0.443700000000     0.733560000000    -0.163794   
C19      C      0.237130000000     0.331970000000     0.965450000000     0.421292   
C20      C      0.233560000000     0.379040000000     0.943700000000    -0.163797   
C21      C      0.331970000000     0.237130000000     0.965450000000     0.421292   
C22      C      0.379040000000     0.233560000000     0.943700000000    -0.163797   
C23      C      0.465450000000     0.465450000000     0.831970000000     0.421289   
C24      C      0.443700000000     0.443700000000     0.879040000000    -0.163795   
C25      C      0.262870000000     0.034550000000     0.668030000000     0.42127    
C26      C      0.266440000000     0.056300000000     0.620960000000    -0.163798   
C27      C      0.034550000000     0.262870000000     0.534550000000     0.421269   
C28      C      0.056300000000     0.266440000000     0.556300000000    -0.163798   
C29      C      0.034550000000     0.168030000000     0.534550000000     0.421259   
C30      C      0.056300000000     0.120960000000     0.556300000000    -0.163793   
C31      C      0.168030000000     0.034550000000     0.762870000000     0.42126    
C32      C      0.120960000000     0.056300000000     0.766440000000    -0.163794   
C33      C      0.168030000000     0.034550000000     0.534550000000     0.421259   
C34      C      0.120960000000     0.056300000000     0.556300000000    -0.163793   
C35      C      0.034550000000     0.262870000000     0.668030000000     0.42127    
C36      C      0.056300000000     0.266440000000     0.620960000000    -0.163798   
C37      C      0.034550000000     0.168030000000     0.762870000000     0.42126    
C38      C      0.056300000000     0.120960000000     0.766440000000    -0.163794   
C39      C      0.262870000000     0.034550000000     0.534550000000     0.421269   
C40      C      0.266440000000     0.056300000000     0.556300000000    -0.163798   
C41      C      0.034550000000     0.034550000000     0.762870000000     0.421211   
C42      C      0.056300000000     0.056300000000     0.766440000000    -0.163788   
C43      C      0.168030000000     0.262870000000     0.534550000000     0.421289   
C44      C      0.120960000000     0.266440000000     0.556300000000    -0.163796   
C45      C      0.262870000000     0.168030000000     0.534550000000     0.421289   
C46      C      0.266440000000     0.120960000000     0.556300000000    -0.163796   
C47      C      0.034550000000     0.034550000000     0.668030000000     0.421209   
C48      C      0.056300000000     0.056300000000     0.620960000000    -0.163788   
C49      C      0.400750000000     0.233610000000     0.900750000000     0.104101   
C50      C      0.233610000000     0.400750000000     0.964890000000     0.104102   
C51      C      0.400750000000     0.464890000000     0.900750000000     0.104101   
C52      C      0.464890000000     0.400750000000     0.733610000000     0.1041     
C53      C      0.400750000000     0.400750000000     0.964890000000     0.104101   
C54      C      0.233610000000     0.464890000000     0.900750000000     0.104101   
C55      C      0.400750000000     0.400750000000     0.733610000000     0.1041     
C56      C      0.464890000000     0.233610000000     0.900750000000     0.104101   
C57      C      0.400750000000     0.464890000000     0.733610000000     0.1041     
C58      C      0.233610000000     0.400750000000     0.900750000000     0.104101   
C59      C      0.400750000000     0.233610000000     0.964890000000     0.104102   
C60      C      0.464890000000     0.400750000000     0.900750000000     0.104101   
C61      C      0.266390000000     0.099250000000     0.599250000000     0.104099   
C62      C      0.099250000000     0.266390000000     0.535110000000     0.104099   
C63      C      0.035110000000     0.099250000000     0.599250000000     0.104084   
C64      C      0.099250000000     0.035110000000     0.766390000000     0.104084   
C65      C      0.099250000000     0.099250000000     0.535110000000     0.104089   
C66      C      0.035110000000     0.266390000000     0.599250000000     0.104098   
C67      C      0.099250000000     0.099250000000     0.766390000000     0.10409    
C68      C      0.266390000000     0.035110000000     0.599250000000     0.104098   
C69      C      0.035110000000     0.099250000000     0.766390000000     0.104084   
C70      C      0.099250000000     0.266390000000     0.599250000000     0.104099   
C71      C      0.266390000000     0.099250000000     0.535110000000     0.104099   
C72      C      0.099250000000     0.035110000000     0.599250000000     0.104084   
O1       O      0.003700000000     0.239340000000     0.813230000000    -0.435638   
O2       O      0.239340000000     0.003700000000     0.943730000000    -0.435637   
O3       O      0.313230000000     0.443730000000     0.503700000000    -0.435604   
O4       O      0.443730000000     0.313230000000     0.739340000000    -0.435604   
O5       O      0.003700000000     0.313230000000     0.943730000000    -0.435629   
O6       O      0.239340000000     0.443730000000     0.813230000000    -0.435605   
O7       O      0.313230000000     0.003700000000     0.739340000000    -0.435631   
O8       O      0.443730000000     0.239340000000     0.503700000000    -0.435605   
O9       O      0.003700000000     0.443730000000     0.739340000000    -0.435625   
O10      O      0.239340000000     0.313230000000     0.503700000000    -0.435604   
O11      O      0.313230000000     0.239340000000     0.943730000000    -0.435605   
O12      O      0.443730000000     0.003700000000     0.813230000000    -0.435624   
O13      O      0.260660000000     0.496300000000     0.686770000000    -0.435604   
O14      O      0.496300000000     0.260660000000     0.556270000000    -0.435604   
O15      O      0.056270000000     0.186770000000     0.996300000000    -0.435595   
O16      O      0.186770000000     0.056270000000     0.760660000000    -0.435601   
O17      O      0.186770000000     0.496300000000     0.556270000000    -0.435605   
O18      O      0.056270000000     0.260660000000     0.686770000000    -0.435601   
O19      O      0.496300000000     0.186770000000     0.760660000000    -0.435605   
O20      O      0.260660000000     0.056270000000     0.996300000000    -0.435596   
O21      O      0.056270000000     0.496300000000     0.760660000000    -0.435607   
O22      O      0.186770000000     0.260660000000     0.996300000000    -0.435602   
O23      O      0.260660000000     0.186770000000     0.556270000000    -0.435605   
O24      O      0.496300000000     0.056270000000     0.686770000000    -0.435607   
O25      O      0.496300000000     0.260660000000     0.686770000000    -0.435604   
O26      O      0.260660000000     0.496300000000     0.556270000000    -0.435604   
O27      O      0.186770000000     0.056270000000     0.996300000000    -0.435595   
O28      O      0.056270000000     0.186770000000     0.760660000000    -0.435601   
O29      O      0.496300000000     0.186770000000     0.556270000000    -0.435605   
O30      O      0.260660000000     0.056270000000     0.686770000000    -0.435601   
O31      O      0.186770000000     0.496300000000     0.760660000000    -0.435605   
O32      O      0.056270000000     0.260660000000     0.996300000000    -0.435596   
O33      O      0.496300000000     0.056270000000     0.760660000000    -0.435607   
O34      O      0.260660000000     0.186770000000     0.996300000000    -0.435602   
O35      O      0.186770000000     0.260660000000     0.556270000000    -0.435605   
O36      O      0.056270000000     0.496300000000     0.686770000000    -0.435607   
O37      O      0.239340000000     0.003700000000     0.813230000000    -0.435638   
O38      O      0.003700000000     0.239340000000     0.943730000000    -0.435637   
O39      O      0.443730000000     0.313230000000     0.503700000000    -0.435604   
O40      O      0.313230000000     0.443730000000     0.739340000000    -0.435604   
O41      O      0.313230000000     0.003700000000     0.943730000000    -0.435629   
O42      O      0.443730000000     0.239340000000     0.813230000000    -0.435605   
O43      O      0.003700000000     0.313230000000     0.739340000000    -0.435631   
O44      O      0.239340000000     0.443730000000     0.503700000000    -0.435605   
O45      O      0.443730000000     0.003700000000     0.739340000000    -0.435625   
O46      O      0.313230000000     0.239340000000     0.503700000000    -0.435604   
O47      O      0.239340000000     0.313230000000     0.943730000000    -0.435605   
O48      O      0.003700000000     0.443730000000     0.813230000000    -0.435624   
Cu1      Cu     0.034930000000     0.750000000000     0.250000000000     0.966208   
Cu2      Cu     0.250000000000     0.534930000000     0.465070000000     0.966209   
Cu3      Cu     0.250000000000     0.965070000000     0.034930000000     0.966206   
Cu4      Cu     0.465070000000     0.750000000000     0.250000000000     0.966209   
Cu5      Cu     0.034930000000     0.750000000000     0.465070000000     0.966209   
Cu6      Cu     0.250000000000     0.965070000000     0.250000000000     0.96621    
Cu7      Cu     0.250000000000     0.534930000000     0.250000000000     0.966209   
Cu8      Cu     0.465070000000     0.750000000000     0.034930000000     0.96621    
Cu9      Cu     0.034930000000     0.965070000000     0.250000000000     0.966173   
Cu10     Cu     0.250000000000     0.750000000000     0.034930000000     0.966209   
Cu11     Cu     0.250000000000     0.750000000000     0.465070000000     0.966209   
Cu12     Cu     0.465070000000     0.534930000000     0.250000000000     0.966209   
H1       H      0.386300000000     0.733700000000     0.386300000000     0.0265314  
H2       H      0.233700000000     0.886300000000     0.493700000000     0.026526   
H3       H      0.386300000000     0.993700000000     0.386300000000     0.0265164  
H4       H      0.493700000000     0.886300000000     0.233700000000     0.0265272  
H5       H      0.386300000000     0.886300000000     0.493700000000     0.0265272  
H6       H      0.233700000000     0.993700000000     0.386300000000     0.0265176  
H7       H      0.386300000000     0.886300000000     0.233700000000     0.0265271  
H8       H      0.493700000000     0.733700000000     0.386300000000     0.0265314  
H9       H      0.386300000000     0.993700000000     0.233700000000     0.0265166  
H10      H      0.233700000000     0.886300000000     0.386300000000     0.026526   
H11      H      0.386300000000     0.733700000000     0.493700000000     0.0265314  
H12      H      0.493700000000     0.886300000000     0.386300000000     0.0265273  
H13      H      0.266300000000     0.613700000000     0.113700000000     0.0265314  
H14      H      0.113700000000     0.766300000000     0.006300000000     0.0265255  
H15      H      0.006300000000     0.613700000000     0.113700000000     0.0265161  
H16      H      0.113700000000     0.506300000000     0.266300000000     0.0265275  
H17      H      0.113700000000     0.613700000000     0.006300000000     0.0265265  
H18      H      0.006300000000     0.766300000000     0.113700000000     0.0265172  
H19      H      0.113700000000     0.613700000000     0.266300000000     0.0265275  
H20      H      0.266300000000     0.506300000000     0.113700000000     0.0265313  
H21      H      0.006300000000     0.613700000000     0.266300000000     0.0265161  
H22      H      0.113700000000     0.766300000000     0.113700000000     0.0265263  
H23      H      0.266300000000     0.613700000000     0.006300000000     0.0265304  
H24      H      0.113700000000     0.506300000000     0.113700000000     0.0265277  
C1       C      0.465450000000     0.737130000000     0.331970000000     0.421289   
C2       C      0.443700000000     0.733560000000     0.379040000000    -0.163794   
C3       C      0.237130000000     0.965450000000     0.465450000000     0.421312   
C4       C      0.233560000000     0.943700000000     0.443700000000    -0.163814   
C5       C      0.331970000000     0.965450000000     0.465450000000     0.421305   
C6       C      0.379040000000     0.943700000000     0.443700000000    -0.16381    
C7       C      0.465450000000     0.831970000000     0.237130000000     0.421291   
C8       C      0.443700000000     0.879040000000     0.233560000000    -0.163802   
C9       C      0.465450000000     0.831970000000     0.465450000000     0.421291   
C10      C      0.443700000000     0.879040000000     0.443700000000    -0.163802   
C11      C      0.237130000000     0.965450000000     0.331970000000     0.421313   
C12      C      0.233560000000     0.943700000000     0.379040000000    -0.163815   
C13      C      0.331970000000     0.965450000000     0.237130000000     0.421306   
C14      C      0.379040000000     0.943700000000     0.233560000000    -0.163811   
C15      C      0.465450000000     0.737130000000     0.465450000000     0.421289   
C16      C      0.443700000000     0.733560000000     0.443700000000    -0.163794   
C17      C      0.465450000000     0.965450000000     0.237130000000     0.421296   
C18      C      0.443700000000     0.943700000000     0.233560000000    -0.163809   
C19      C      0.237130000000     0.831970000000     0.465450000000     0.421292   
C20      C      0.233560000000     0.879040000000     0.443700000000    -0.163805   
C21      C      0.331970000000     0.737130000000     0.465450000000     0.421289   
C22      C      0.379040000000     0.733560000000     0.443700000000    -0.163794   
C23      C      0.465450000000     0.965450000000     0.331970000000     0.421295   
C24      C      0.443700000000     0.943700000000     0.379040000000    -0.163809   
C25      C      0.262870000000     0.534550000000     0.168030000000     0.421289   
C26      C      0.266440000000     0.556300000000     0.120960000000    -0.163794   
C27      C      0.034550000000     0.762870000000     0.034550000000     0.421307   
C28      C      0.056300000000     0.766440000000     0.056300000000    -0.163813   
C29      C      0.034550000000     0.668030000000     0.034550000000     0.421298   
C30      C      0.056300000000     0.620960000000     0.056300000000    -0.163808   
C31      C      0.168030000000     0.534550000000     0.262870000000     0.421291   
C32      C      0.120960000000     0.556300000000     0.266440000000    -0.163802   
C33      C      0.168030000000     0.534550000000     0.034550000000     0.421288   
C34      C      0.120960000000     0.556300000000     0.056300000000    -0.163801   
C35      C      0.034550000000     0.762870000000     0.168030000000     0.421309   
C36      C      0.056300000000     0.766440000000     0.120960000000    -0.163813   
C37      C      0.034550000000     0.668030000000     0.262870000000     0.421303   
C38      C      0.056300000000     0.620960000000     0.266440000000    -0.163809   
C39      C      0.262870000000     0.534550000000     0.034550000000     0.421287   
C40      C      0.266440000000     0.556300000000     0.056300000000    -0.163794   
C41      C      0.034550000000     0.534550000000     0.262870000000     0.421292   
C42      C      0.056300000000     0.556300000000     0.266440000000    -0.163808   
C43      C      0.168030000000     0.762870000000     0.034550000000     0.421291   
C44      C      0.120960000000     0.766440000000     0.056300000000    -0.163805   
C45      C      0.262870000000     0.668030000000     0.034550000000     0.421288   
C46      C      0.266440000000     0.620960000000     0.056300000000    -0.163794   
C47      C      0.034550000000     0.534550000000     0.168030000000     0.421291   
C48      C      0.056300000000     0.556300000000     0.120960000000    -0.163807   
C49      C      0.400750000000     0.733610000000     0.400750000000     0.1041     
C50      C      0.233610000000     0.900750000000     0.464890000000     0.104112   
C51      C      0.400750000000     0.964890000000     0.400750000000     0.104111   
C52      C      0.464890000000     0.900750000000     0.233610000000     0.104108   
C53      C      0.400750000000     0.900750000000     0.464890000000     0.104108   
C54      C      0.233610000000     0.964890000000     0.400750000000     0.104117   
C55      C      0.400750000000     0.900750000000     0.233610000000     0.104109   
C56      C      0.464890000000     0.733610000000     0.400750000000     0.1041     
C57      C      0.400750000000     0.964890000000     0.233610000000     0.104112   
C58      C      0.233610000000     0.900750000000     0.400750000000     0.104112   
C59      C      0.400750000000     0.733610000000     0.464890000000     0.1041     
C60      C      0.464890000000     0.900750000000     0.400750000000     0.104107   
C61      C      0.266390000000     0.599250000000     0.099250000000     0.1041     
C62      C      0.099250000000     0.766390000000     0.035110000000     0.10411    
C63      C      0.035110000000     0.599250000000     0.099250000000     0.104109   
C64      C      0.099250000000     0.535110000000     0.266390000000     0.104107   
C65      C      0.099250000000     0.599250000000     0.035110000000     0.104106   
C66      C      0.035110000000     0.766390000000     0.099250000000     0.104115   
C67      C      0.099250000000     0.599250000000     0.266390000000     0.104108   
C68      C      0.266390000000     0.535110000000     0.099250000000     0.1041     
C69      C      0.035110000000     0.599250000000     0.266390000000     0.10411    
C70      C      0.099250000000     0.766390000000     0.099250000000     0.104111   
C71      C      0.266390000000     0.599250000000     0.035110000000     0.1041     
C72      C      0.099250000000     0.535110000000     0.099250000000     0.104106   
O1       O      0.003700000000     0.739340000000     0.313230000000    -0.435607   
O2       O      0.239340000000     0.503700000000     0.443730000000    -0.435604   
O3       O      0.313230000000     0.943730000000     0.003700000000    -0.435606   
O4       O      0.443730000000     0.813230000000     0.239340000000    -0.435605   
O5       O      0.003700000000     0.813230000000     0.443730000000    -0.435599   
O6       O      0.239340000000     0.943730000000     0.313230000000    -0.435611   
O7       O      0.313230000000     0.503700000000     0.239340000000    -0.435604   
O8       O      0.443730000000     0.739340000000     0.003700000000    -0.435603   
O9       O      0.003700000000     0.943730000000     0.239340000000    -0.43558    
O10      O      0.239340000000     0.813230000000     0.003700000000    -0.435606   
O11      O      0.313230000000     0.739340000000     0.443730000000    -0.435604   
O12      O      0.443730000000     0.503700000000     0.313230000000    -0.435604   
O13      O      0.260660000000     0.996300000000     0.186770000000    -0.435604   
O14      O      0.496300000000     0.760660000000     0.056270000000    -0.435605   
O15      O      0.056270000000     0.686770000000     0.496300000000    -0.435609   
O16      O      0.186770000000     0.556270000000     0.260660000000    -0.435605   
O17      O      0.186770000000     0.996300000000     0.056270000000    -0.435594   
O18      O      0.056270000000     0.760660000000     0.186770000000    -0.43561    
O19      O      0.496300000000     0.686770000000     0.260660000000    -0.435604   
O20      O      0.260660000000     0.556270000000     0.496300000000    -0.435604   
O21      O      0.056270000000     0.996300000000     0.260660000000    -0.435577   
O22      O      0.186770000000     0.760660000000     0.496300000000    -0.435605   
O23      O      0.260660000000     0.686770000000     0.056270000000    -0.435604   
O24      O      0.496300000000     0.556270000000     0.186770000000    -0.435604   
O25      O      0.496300000000     0.760660000000     0.186770000000    -0.435604   
O26      O      0.260660000000     0.996300000000     0.056270000000    -0.435601   
O27      O      0.186770000000     0.556270000000     0.496300000000    -0.435605   
O28      O      0.056270000000     0.686770000000     0.260660000000    -0.435608   
O29      O      0.496300000000     0.686770000000     0.056270000000    -0.435604   
O30      O      0.260660000000     0.556270000000     0.186770000000    -0.435604   
O31      O      0.186770000000     0.996300000000     0.260660000000    -0.435598   
O32      O      0.056270000000     0.760660000000     0.496300000000    -0.43561    
O33      O      0.496300000000     0.556270000000     0.260660000000    -0.435604   
O34      O      0.260660000000     0.686770000000     0.496300000000    -0.435604   
O35      O      0.186770000000     0.760660000000     0.056270000000    -0.435605   
O36      O      0.056270000000     0.996300000000     0.186770000000    -0.435576   
O37      O      0.239340000000     0.503700000000     0.313230000000    -0.435604   
O38      O      0.003700000000     0.739340000000     0.443730000000    -0.435606   
O39      O      0.443730000000     0.813230000000     0.003700000000    -0.435604   
O40      O      0.313230000000     0.943730000000     0.239340000000    -0.435609   
O41      O      0.313230000000     0.503700000000     0.443730000000    -0.435604   
O42      O      0.443730000000     0.739340000000     0.313230000000    -0.435604   
O43      O      0.003700000000     0.813230000000     0.239340000000    -0.4356     
O44      O      0.239340000000     0.943730000000     0.003700000000    -0.435609   
O45      O      0.443730000000     0.503700000000     0.239340000000    -0.435604   
O46      O      0.313230000000     0.739340000000     0.003700000000    -0.435604   
O47      O      0.239340000000     0.813230000000     0.443730000000    -0.435605   
O48      O      0.003700000000     0.943730000000     0.313230000000    -0.435579   
Cu1      Cu     0.034930000000     0.750000000000     0.750000000000     0.96621    
Cu2      Cu     0.250000000000     0.534930000000     0.965070000000     0.96621    
Cu3      Cu     0.250000000000     0.965070000000     0.534930000000     0.966209   
Cu4      Cu     0.465070000000     0.750000000000     0.750000000000     0.966209   
Cu5      Cu     0.034930000000     0.750000000000     0.965070000000     0.966206   
Cu6      Cu     0.250000000000     0.965070000000     0.750000000000     0.966208   
Cu7      Cu     0.250000000000     0.534930000000     0.750000000000     0.966209   
Cu8      Cu     0.465070000000     0.750000000000     0.534930000000     0.966209   
Cu9      Cu     0.034930000000     0.965070000000     0.750000000000     0.966173   
Cu10     Cu     0.250000000000     0.750000000000     0.534930000000     0.966209   
Cu11     Cu     0.250000000000     0.750000000000     0.965070000000     0.966209   
Cu12     Cu     0.465070000000     0.534930000000     0.750000000000     0.966209   
H1       H      0.386300000000     0.733700000000     0.886300000000     0.0265314  
H2       H      0.233700000000     0.886300000000     0.993700000000     0.0265255  
H3       H      0.386300000000     0.993700000000     0.886300000000     0.0265161  
H4       H      0.493700000000     0.886300000000     0.733700000000     0.0265275  
H5       H      0.386300000000     0.886300000000     0.993700000000     0.0265265  
H6       H      0.233700000000     0.993700000000     0.886300000000     0.0265172  
H7       H      0.386300000000     0.886300000000     0.733700000000     0.0265275  
H8       H      0.493700000000     0.733700000000     0.886300000000     0.0265313  
H9       H      0.386300000000     0.993700000000     0.733700000000     0.0265161  
H10      H      0.233700000000     0.886300000000     0.886300000000     0.0265263  
H11      H      0.386300000000     0.733700000000     0.993700000000     0.0265304  
H12      H      0.493700000000     0.886300000000     0.886300000000     0.0265277  
H13      H      0.266300000000     0.613700000000     0.613700000000     0.0265314  
H14      H      0.113700000000     0.766300000000     0.506300000000     0.026526   
H15      H      0.006300000000     0.613700000000     0.613700000000     0.0265164  
H16      H      0.113700000000     0.506300000000     0.766300000000     0.0265272  
H17      H      0.113700000000     0.613700000000     0.506300000000     0.0265272  
H18      H      0.006300000000     0.766300000000     0.613700000000     0.0265176  
H19      H      0.113700000000     0.613700000000     0.766300000000     0.0265271  
H20      H      0.266300000000     0.506300000000     0.613700000000     0.0265314  
H21      H      0.006300000000     0.613700000000     0.766300000000     0.0265166  
H22      H      0.113700000000     0.766300000000     0.613700000000     0.026526   
H23      H      0.266300000000     0.613700000000     0.506300000000     0.0265314  
H24      H      0.113700000000     0.506300000000     0.613700000000     0.0265273  
C1       C      0.465450000000     0.737130000000     0.831970000000     0.421289   
C2       C      0.443700000000     0.733560000000     0.879040000000    -0.163794   
C3       C      0.237130000000     0.965450000000     0.965450000000     0.421307   
C4       C      0.233560000000     0.943700000000     0.943700000000    -0.163813   
C5       C      0.331970000000     0.965450000000     0.965450000000     0.421298   
C6       C      0.379040000000     0.943700000000     0.943700000000    -0.163808   
C7       C      0.465450000000     0.831970000000     0.737130000000     0.421291   
C8       C      0.443700000000     0.879040000000     0.733560000000    -0.163802   
C9       C      0.465450000000     0.831970000000     0.965450000000     0.421288   
C10      C      0.443700000000     0.879040000000     0.943700000000    -0.163801   
C11      C      0.237130000000     0.965450000000     0.831970000000     0.421309   
C12      C      0.233560000000     0.943700000000     0.879040000000    -0.163813   
C13      C      0.331970000000     0.965450000000     0.737130000000     0.421303   
C14      C      0.379040000000     0.943700000000     0.733560000000    -0.163809   
C15      C      0.465450000000     0.737130000000     0.965450000000     0.421287   
C16      C      0.443700000000     0.733560000000     0.943700000000    -0.163794   
C17      C      0.465450000000     0.965450000000     0.737130000000     0.421292   
C18      C      0.443700000000     0.943700000000     0.733560000000    -0.163808   
C19      C      0.237130000000     0.831970000000     0.965450000000     0.421291   
C20      C      0.233560000000     0.879040000000     0.943700000000    -0.163805   
C21      C      0.331970000000     0.737130000000     0.965450000000     0.421288   
C22      C      0.379040000000     0.733560000000     0.943700000000    -0.163794   
C23      C      0.465450000000     0.965450000000     0.831970000000     0.421291   
C24      C      0.443700000000     0.943700000000     0.879040000000    -0.163807   
C25      C      0.262870000000     0.534550000000     0.668030000000     0.421289   
C26      C      0.266440000000     0.556300000000     0.620960000000    -0.163794   
C27      C      0.034550000000     0.762870000000     0.534550000000     0.421312   
C28      C      0.056300000000     0.766440000000     0.556300000000    -0.163814   
C29      C      0.034550000000     0.668030000000     0.534550000000     0.421305   
C30      C      0.056300000000     0.620960000000     0.556300000000    -0.16381    
C31      C      0.168030000000     0.534550000000     0.762870000000     0.421291   
C32      C      0.120960000000     0.556300000000     0.766440000000    -0.163802   
C33      C      0.168030000000     0.534550000000     0.534550000000     0.421291   
C34      C      0.120960000000     0.556300000000     0.556300000000    -0.163802   
C35      C      0.034550000000     0.762870000000     0.668030000000     0.421313   
C36      C      0.056300000000     0.766440000000     0.620960000000    -0.163815   
C37      C      0.034550000000     0.668030000000     0.762870000000     0.421306   
C38      C      0.056300000000     0.620960000000     0.766440000000    -0.163811   
C39      C      0.262870000000     0.534550000000     0.534550000000     0.421289   
C40      C      0.266440000000     0.556300000000     0.556300000000    -0.163794   
C41      C      0.034550000000     0.534550000000     0.762870000000     0.421296   
C42      C      0.056300000000     0.556300000000     0.766440000000    -0.163809   
C43      C      0.168030000000     0.762870000000     0.534550000000     0.421292   
C44      C      0.120960000000     0.766440000000     0.556300000000    -0.163805   
C45      C      0.262870000000     0.668030000000     0.534550000000     0.421289   
C46      C      0.266440000000     0.620960000000     0.556300000000    -0.163794   
C47      C      0.034550000000     0.534550000000     0.668030000000     0.421295   
C48      C      0.056300000000     0.556300000000     0.620960000000    -0.163809   
C49      C      0.400750000000     0.733610000000     0.900750000000     0.1041     
C50      C      0.233610000000     0.900750000000     0.964890000000     0.10411    
C51      C      0.400750000000     0.964890000000     0.900750000000     0.104109   
C52      C      0.464890000000     0.900750000000     0.733610000000     0.104107   
C53      C      0.400750000000     0.900750000000     0.964890000000     0.104106   
C54      C      0.233610000000     0.964890000000     0.900750000000     0.104115   
C55      C      0.400750000000     0.900750000000     0.733610000000     0.104108   
C56      C      0.464890000000     0.733610000000     0.900750000000     0.1041     
C57      C      0.400750000000     0.964890000000     0.733610000000     0.10411    
C58      C      0.233610000000     0.900750000000     0.900750000000     0.104111   
C59      C      0.400750000000     0.733610000000     0.964890000000     0.1041     
C60      C      0.464890000000     0.900750000000     0.900750000000     0.104106   
C61      C      0.266390000000     0.599250000000     0.599250000000     0.1041     
C62      C      0.099250000000     0.766390000000     0.535110000000     0.104112   
C63      C      0.035110000000     0.599250000000     0.599250000000     0.104111   
C64      C      0.099250000000     0.535110000000     0.766390000000     0.104108   
C65      C      0.099250000000     0.599250000000     0.535110000000     0.104108   
C66      C      0.035110000000     0.766390000000     0.599250000000     0.104117   
C67      C      0.099250000000     0.599250000000     0.766390000000     0.104109   
C68      C      0.266390000000     0.535110000000     0.599250000000     0.1041     
C69      C      0.035110000000     0.599250000000     0.766390000000     0.104112   
C70      C      0.099250000000     0.766390000000     0.599250000000     0.104112   
C71      C      0.266390000000     0.599250000000     0.535110000000     0.1041     
C72      C      0.099250000000     0.535110000000     0.599250000000     0.104107   
O1       O      0.003700000000     0.739340000000     0.813230000000    -0.435604   
O2       O      0.239340000000     0.503700000000     0.943730000000    -0.435605   
O3       O      0.313230000000     0.943730000000     0.503700000000    -0.435609   
O4       O      0.443730000000     0.813230000000     0.739340000000    -0.435605   
O5       O      0.003700000000     0.813230000000     0.943730000000    -0.435594   
O6       O      0.239340000000     0.943730000000     0.813230000000    -0.43561    
O7       O      0.313230000000     0.503700000000     0.739340000000    -0.435604   
O8       O      0.443730000000     0.739340000000     0.503700000000    -0.435604   
O9       O      0.003700000000     0.943730000000     0.739340000000    -0.435577   
O10      O      0.239340000000     0.813230000000     0.503700000000    -0.435605   
O11      O      0.313230000000     0.739340000000     0.943730000000    -0.435604   
O12      O      0.443730000000     0.503700000000     0.813230000000    -0.435604   
O13      O      0.260660000000     0.996300000000     0.686770000000    -0.435607   
O14      O      0.496300000000     0.760660000000     0.556270000000    -0.435604   
O15      O      0.056270000000     0.686770000000     0.996300000000    -0.435606   
O16      O      0.186770000000     0.556270000000     0.760660000000    -0.435605   
O17      O      0.186770000000     0.996300000000     0.556270000000    -0.435599   
O18      O      0.056270000000     0.760660000000     0.686770000000    -0.435611   
O19      O      0.496300000000     0.686770000000     0.760660000000    -0.435604   
O20      O      0.260660000000     0.556270000000     0.996300000000    -0.435603   
O21      O      0.056270000000     0.996300000000     0.760660000000    -0.43558    
O22      O      0.186770000000     0.760660000000     0.996300000000    -0.435606   
O23      O      0.260660000000     0.686770000000     0.556270000000    -0.435604   
O24      O      0.496300000000     0.556270000000     0.686770000000    -0.435604   
O25      O      0.496300000000     0.760660000000     0.686770000000    -0.435604   
O26      O      0.260660000000     0.996300000000     0.556270000000    -0.435606   
O27      O      0.186770000000     0.556270000000     0.996300000000    -0.435604   
O28      O      0.056270000000     0.686770000000     0.760660000000    -0.435609   
O29      O      0.496300000000     0.686770000000     0.556270000000    -0.435604   
O30      O      0.260660000000     0.556270000000     0.686770000000    -0.435604   
O31      O      0.186770000000     0.996300000000     0.760660000000    -0.4356     
O32      O      0.056270000000     0.760660000000     0.996300000000    -0.435609   
O33      O      0.496300000000     0.556270000000     0.760660000000    -0.435604   
O34      O      0.260660000000     0.686770000000     0.996300000000    -0.435604   
O35      O      0.186770000000     0.760660000000     0.556270000000    -0.435605   
O36      O      0.056270000000     0.996300000000     0.686770000000    -0.435579   
O37      O      0.239340000000     0.503700000000     0.813230000000    -0.435604   
O38      O      0.003700000000     0.739340000000     0.943730000000    -0.435601   
O39      O      0.443730000000     0.813230000000     0.503700000000    -0.435605   
O40      O      0.313230000000     0.943730000000     0.739340000000    -0.435608   
O41      O      0.313230000000     0.503700000000     0.943730000000    -0.435604   
O42      O      0.443730000000     0.739340000000     0.813230000000    -0.435604   
O43      O      0.003700000000     0.813230000000     0.739340000000    -0.435598   
O44      O      0.239340000000     0.943730000000     0.503700000000    -0.43561    
O45      O      0.443730000000     0.503700000000     0.739340000000    -0.435604   
O46      O      0.313230000000     0.739340000000     0.503700000000    -0.435604   
O47      O      0.239340000000     0.813230000000     0.943730000000    -0.435605   
O48      O      0.003700000000     0.943730000000     0.813230000000    -0.435576   
Cu1      Cu     0.534930000000     0.250000000000     0.250000000000     0.966209   
Cu2      Cu     0.750000000000     0.034930000000     0.465070000000     0.966209   
Cu3      Cu     0.750000000000     0.465070000000     0.034930000000     0.96621    
Cu4      Cu     0.965070000000     0.250000000000     0.250000000000     0.96621    
Cu5      Cu     0.534930000000     0.250000000000     0.465070000000     0.966209   
Cu6      Cu     0.750000000000     0.465070000000     0.250000000000     0.966209   
Cu7      Cu     0.750000000000     0.034930000000     0.250000000000     0.966208   
Cu8      Cu     0.965070000000     0.250000000000     0.034930000000     0.966206   
Cu9      Cu     0.534930000000     0.465070000000     0.250000000000     0.966209   
Cu10     Cu     0.750000000000     0.250000000000     0.034930000000     0.966209   
Cu11     Cu     0.750000000000     0.250000000000     0.465070000000     0.966209   
Cu12     Cu     0.965070000000     0.034930000000     0.250000000000     0.966173   
H1       H      0.886300000000     0.233700000000     0.386300000000     0.026526   
H2       H      0.733700000000     0.386300000000     0.493700000000     0.0265314  
H3       H      0.886300000000     0.493700000000     0.386300000000     0.0265273  
H4       H      0.993700000000     0.386300000000     0.233700000000     0.0265166  
H5       H      0.886300000000     0.386300000000     0.493700000000     0.0265272  
H6       H      0.733700000000     0.493700000000     0.386300000000     0.0265314  
H7       H      0.886300000000     0.386300000000     0.233700000000     0.0265271  
H8       H      0.993700000000     0.233700000000     0.386300000000     0.0265176  
H9       H      0.886300000000     0.493700000000     0.233700000000     0.0265272  
H10      H      0.733700000000     0.386300000000     0.386300000000     0.0265314  
H11      H      0.886300000000     0.233700000000     0.493700000000     0.026526   
H12      H      0.993700000000     0.386300000000     0.386300000000     0.0265164  
H13      H      0.766300000000     0.113700000000     0.113700000000     0.0265263  
H14      H      0.613700000000     0.266300000000     0.006300000000     0.0265304  
H15      H      0.506300000000     0.113700000000     0.113700000000     0.0265277  
H16      H      0.613700000000     0.006300000000     0.266300000000     0.0265161  
H17      H      0.613700000000     0.113700000000     0.006300000000     0.0265265  
H18      H      0.506300000000     0.266300000000     0.113700000000     0.0265313  
H19      H      0.613700000000     0.113700000000     0.266300000000     0.0265275  
H20      H      0.766300000000     0.006300000000     0.113700000000     0.0265172  
H21      H      0.506300000000     0.113700000000     0.266300000000     0.0265275  
H22      H      0.613700000000     0.266300000000     0.113700000000     0.0265314  
H23      H      0.766300000000     0.113700000000     0.006300000000     0.0265255  
H24      H      0.613700000000     0.006300000000     0.113700000000     0.0265161  
C1       C      0.965450000000     0.237130000000     0.331970000000     0.421313   
C2       C      0.943700000000     0.233560000000     0.379040000000    -0.163815   
C3       C      0.737130000000     0.465450000000     0.465450000000     0.421289   
C4       C      0.733560000000     0.443700000000     0.443700000000    -0.163794   
C5       C      0.831970000000     0.465450000000     0.465450000000     0.421291   
C6       C      0.879040000000     0.443700000000     0.443700000000    -0.163802   
C7       C      0.965450000000     0.331970000000     0.237130000000     0.421306   
C8       C      0.943700000000     0.379040000000     0.233560000000    -0.163811   
C9       C      0.965450000000     0.331970000000     0.465450000000     0.421305   
C10      C      0.943700000000     0.379040000000     0.443700000000    -0.16381    
C11      C      0.737130000000     0.465450000000     0.331970000000     0.421289   
C12      C      0.733560000000     0.443700000000     0.379040000000    -0.163794   
C13      C      0.831970000000     0.465450000000     0.237130000000     0.421291   
C14      C      0.879040000000     0.443700000000     0.233560000000    -0.163802   
C15      C      0.965450000000     0.237130000000     0.465450000000     0.421312   
C16      C      0.943700000000     0.233560000000     0.443700000000    -0.163814   
C17      C      0.965450000000     0.465450000000     0.237130000000     0.421296   
C18      C      0.943700000000     0.443700000000     0.233560000000    -0.163809   
C19      C      0.737130000000     0.331970000000     0.465450000000     0.421289   
C20      C      0.733560000000     0.379040000000     0.443700000000    -0.163794   
C21      C      0.831970000000     0.237130000000     0.465450000000     0.421292   
C22      C      0.879040000000     0.233560000000     0.443700000000    -0.163805   
C23      C      0.965450000000     0.465450000000     0.331970000000     0.421295   
C24      C      0.943700000000     0.443700000000     0.379040000000    -0.163809   
C25      C      0.762870000000     0.034550000000     0.168030000000     0.421309   
C26      C      0.766440000000     0.056300000000     0.120960000000    -0.163813   
C27      C      0.534550000000     0.262870000000     0.034550000000     0.421287   
C28      C      0.556300000000     0.266440000000     0.056300000000    -0.163794   
C29      C      0.534550000000     0.168030000000     0.034550000000     0.421288   
C30      C      0.556300000000     0.120960000000     0.056300000000    -0.163801   
C31      C      0.668030000000     0.034550000000     0.262870000000     0.421303   
C32      C      0.620960000000     0.056300000000     0.266440000000    -0.163809   
C33      C      0.668030000000     0.034550000000     0.034550000000     0.421298   
C34      C      0.620960000000     0.056300000000     0.056300000000    -0.163808   
C35      C      0.534550000000     0.262870000000     0.168030000000     0.421289   
C36      C      0.556300000000     0.266440000000     0.120960000000    -0.163794   
C37      C      0.534550000000     0.168030000000     0.262870000000     0.421291   
C38      C      0.556300000000     0.120960000000     0.266440000000    -0.163802   
C39      C      0.762870000000     0.034550000000     0.034550000000     0.421307   
C40      C      0.766440000000     0.056300000000     0.056300000000    -0.163813   
C41      C      0.534550000000     0.034550000000     0.262870000000     0.421292   
C42      C      0.556300000000     0.056300000000     0.266440000000    -0.163808   
C43      C      0.668030000000     0.262870000000     0.034550000000     0.421288   
C44      C      0.620960000000     0.266440000000     0.056300000000    -0.163794   
C45      C      0.762870000000     0.168030000000     0.034550000000     0.421291   
C46      C      0.766440000000     0.120960000000     0.056300000000    -0.163805   
C47      C      0.534550000000     0.034550000000     0.168030000000     0.421291   
C48      C      0.556300000000     0.056300000000     0.120960000000    -0.163807   
C49      C      0.900750000000     0.233610000000     0.400750000000     0.104112   
C50      C      0.733610000000     0.400750000000     0.464890000000     0.1041     
C51      C      0.900750000000     0.464890000000     0.400750000000     0.104107   
C52      C      0.964890000000     0.400750000000     0.233610000000     0.104112   
C53      C      0.900750000000     0.400750000000     0.464890000000     0.104108   
C54      C      0.733610000000     0.464890000000     0.400750000000     0.1041     
C55      C      0.900750000000     0.400750000000     0.233610000000     0.104109   
C56      C      0.964890000000     0.233610000000     0.400750000000     0.104117   
C57      C      0.900750000000     0.464890000000     0.233610000000     0.104108   
C58      C      0.733610000000     0.400750000000     0.400750000000     0.1041     
C59      C      0.900750000000     0.233610000000     0.464890000000     0.104112   
C60      C      0.964890000000     0.400750000000     0.400750000000     0.104111   
C61      C      0.766390000000     0.099250000000     0.099250000000     0.104111   
C62      C      0.599250000000     0.266390000000     0.035110000000     0.1041     
C63      C      0.535110000000     0.099250000000     0.099250000000     0.104106   
C64      C      0.599250000000     0.035110000000     0.266390000000     0.10411    
C65      C      0.599250000000     0.099250000000     0.035110000000     0.104106   
C66      C      0.535110000000     0.266390000000     0.099250000000     0.1041     
C67      C      0.599250000000     0.099250000000     0.266390000000     0.104108   
C68      C      0.766390000000     0.035110000000     0.099250000000     0.104115   
C69      C      0.535110000000     0.099250000000     0.266390000000     0.104107   
C70      C      0.599250000000     0.266390000000     0.099250000000     0.1041     
C71      C      0.766390000000     0.099250000000     0.035110000000     0.10411    
C72      C      0.599250000000     0.035110000000     0.099250000000     0.104109   
O1       O      0.503700000000     0.239340000000     0.313230000000    -0.435604   
O2       O      0.739340000000     0.003700000000     0.443730000000    -0.435606   
O3       O      0.813230000000     0.443730000000     0.003700000000    -0.435604   
O4       O      0.943730000000     0.313230000000     0.239340000000    -0.435609   
O5       O      0.503700000000     0.313230000000     0.443730000000    -0.435604   
O6       O      0.739340000000     0.443730000000     0.313230000000    -0.435604   
O7       O      0.813230000000     0.003700000000     0.239340000000    -0.4356     
O8       O      0.943730000000     0.239340000000     0.003700000000    -0.435609   
O9       O      0.503700000000     0.443730000000     0.239340000000    -0.435604   
O10      O      0.739340000000     0.313230000000     0.003700000000    -0.435604   
O11      O      0.813230000000     0.239340000000     0.443730000000    -0.435605   
O12      O      0.943730000000     0.003700000000     0.313230000000    -0.435579   
O13      O      0.760660000000     0.496300000000     0.186770000000    -0.435604   
O14      O      0.996300000000     0.260660000000     0.056270000000    -0.435601   
O15      O      0.556270000000     0.186770000000     0.496300000000    -0.435605   
O16      O      0.686770000000     0.056270000000     0.260660000000    -0.435608   
O17      O      0.686770000000     0.496300000000     0.056270000000    -0.435604   
O18      O      0.556270000000     0.260660000000     0.186770000000    -0.435604   
O19      O      0.996300000000     0.186770000000     0.260660000000    -0.435598   
O20      O      0.760660000000     0.056270000000     0.496300000000    -0.43561    
O21      O      0.556270000000     0.496300000000     0.260660000000    -0.435604   
O22      O      0.686770000000     0.260660000000     0.496300000000    -0.435604   
O23      O      0.760660000000     0.186770000000     0.056270000000    -0.435605   
O24      O      0.996300000000     0.056270000000     0.186770000000    -0.435576   
O25      O      0.996300000000     0.260660000000     0.186770000000    -0.435604   
O26      O      0.760660000000     0.496300000000     0.056270000000    -0.435605   
O27      O      0.686770000000     0.056270000000     0.496300000000    -0.435609   
O28      O      0.556270000000     0.186770000000     0.260660000000    -0.435605   
O29      O      0.996300000000     0.186770000000     0.056270000000    -0.435594   
O30      O      0.760660000000     0.056270000000     0.186770000000    -0.43561    
O31      O      0.686770000000     0.496300000000     0.260660000000    -0.435604   
O32      O      0.556270000000     0.260660000000     0.496300000000    -0.435604   
O33      O      0.996300000000     0.056270000000     0.260660000000    -0.435577   
O34      O      0.760660000000     0.186770000000     0.496300000000    -0.435605   
O35      O      0.686770000000     0.260660000000     0.056270000000    -0.435604   
O36      O      0.556270000000     0.496300000000     0.186770000000    -0.435604   
O37      O      0.739340000000     0.003700000000     0.313230000000    -0.435607   
O38      O      0.503700000000     0.239340000000     0.443730000000    -0.435604   
O39      O      0.943730000000     0.313230000000     0.003700000000    -0.435606   
O40      O      0.813230000000     0.443730000000     0.239340000000    -0.435605   
O41      O      0.813230000000     0.003700000000     0.443730000000    -0.435599   
O42      O      0.943730000000     0.239340000000     0.313230000000    -0.435611   
O43      O      0.503700000000     0.313230000000     0.239340000000    -0.435604   
O44      O      0.739340000000     0.443730000000     0.003700000000    -0.435603   
O45      O      0.943730000000     0.003700000000     0.239340000000    -0.43558    
O46      O      0.813230000000     0.239340000000     0.003700000000    -0.435606   
O47      O      0.739340000000     0.313230000000     0.443730000000    -0.435604   
O48      O      0.503700000000     0.443730000000     0.313230000000    -0.435604   
Cu1      Cu     0.534930000000     0.250000000000     0.750000000000     0.966209   
Cu2      Cu     0.750000000000     0.034930000000     0.965070000000     0.966206   
Cu3      Cu     0.750000000000     0.465070000000     0.534930000000     0.966209   
Cu4      Cu     0.965070000000     0.250000000000     0.750000000000     0.966208   
Cu5      Cu     0.534930000000     0.250000000000     0.965070000000     0.96621    
Cu6      Cu     0.750000000000     0.465070000000     0.750000000000     0.966209   
Cu7      Cu     0.750000000000     0.034930000000     0.750000000000     0.96621    
Cu8      Cu     0.965070000000     0.250000000000     0.534930000000     0.966209   
Cu9      Cu     0.534930000000     0.465070000000     0.750000000000     0.966209   
Cu10     Cu     0.750000000000     0.250000000000     0.534930000000     0.966209   
Cu11     Cu     0.750000000000     0.250000000000     0.965070000000     0.966209   
Cu12     Cu     0.965070000000     0.034930000000     0.750000000000     0.966173   
H1       H      0.886300000000     0.233700000000     0.886300000000     0.0265263  
H2       H      0.733700000000     0.386300000000     0.993700000000     0.0265304  
H3       H      0.886300000000     0.493700000000     0.886300000000     0.0265277  
H4       H      0.993700000000     0.386300000000     0.733700000000     0.0265161  
H5       H      0.886300000000     0.386300000000     0.993700000000     0.0265265  
H6       H      0.733700000000     0.493700000000     0.886300000000     0.0265313  
H7       H      0.886300000000     0.386300000000     0.733700000000     0.0265275  
H8       H      0.993700000000     0.233700000000     0.886300000000     0.0265172  
H9       H      0.886300000000     0.493700000000     0.733700000000     0.0265275  
H10      H      0.733700000000     0.386300000000     0.886300000000     0.0265314  
H11      H      0.886300000000     0.233700000000     0.993700000000     0.0265255  
H12      H      0.993700000000     0.386300000000     0.886300000000     0.0265161  
H13      H      0.766300000000     0.113700000000     0.613700000000     0.026526   
H14      H      0.613700000000     0.266300000000     0.506300000000     0.0265314  
H15      H      0.506300000000     0.113700000000     0.613700000000     0.0265273  
H16      H      0.613700000000     0.006300000000     0.766300000000     0.0265166  
H17      H      0.613700000000     0.113700000000     0.506300000000     0.0265272  
H18      H      0.506300000000     0.266300000000     0.613700000000     0.0265314  
H19      H      0.613700000000     0.113700000000     0.766300000000     0.0265271  
H20      H      0.766300000000     0.006300000000     0.613700000000     0.0265176  
H21      H      0.506300000000     0.113700000000     0.766300000000     0.0265272  
H22      H      0.613700000000     0.266300000000     0.613700000000     0.0265314  
H23      H      0.766300000000     0.113700000000     0.506300000000     0.026526   
H24      H      0.613700000000     0.006300000000     0.613700000000     0.0265164  
C1       C      0.965450000000     0.237130000000     0.831970000000     0.421309   
C2       C      0.943700000000     0.233560000000     0.879040000000    -0.163813   
C3       C      0.737130000000     0.465450000000     0.965450000000     0.421287   
C4       C      0.733560000000     0.443700000000     0.943700000000    -0.163794   
C5       C      0.831970000000     0.465450000000     0.965450000000     0.421288   
C6       C      0.879040000000     0.443700000000     0.943700000000    -0.163801   
C7       C      0.965450000000     0.331970000000     0.737130000000     0.421303   
C8       C      0.943700000000     0.379040000000     0.733560000000    -0.163809   
C9       C      0.965450000000     0.331970000000     0.965450000000     0.421298   
C10      C      0.943700000000     0.379040000000     0.943700000000    -0.163808   
C11      C      0.737130000000     0.465450000000     0.831970000000     0.421289   
C12      C      0.733560000000     0.443700000000     0.879040000000    -0.163794   
C13      C      0.831970000000     0.465450000000     0.737130000000     0.421291   
C14      C      0.879040000000     0.443700000000     0.733560000000    -0.163802   
C15      C      0.965450000000     0.237130000000     0.965450000000     0.421307   
C16      C      0.943700000000     0.233560000000     0.943700000000    -0.163813   
C17      C      0.965450000000     0.465450000000     0.737130000000     0.421292   
C18      C      0.943700000000     0.443700000000     0.733560000000    -0.163808   
C19      C      0.737130000000     0.331970000000     0.965450000000     0.421288   
C20      C      0.733560000000     0.379040000000     0.943700000000    -0.163794   
C21      C      0.831970000000     0.237130000000     0.965450000000     0.421291   
C22      C      0.879040000000     0.233560000000     0.943700000000    -0.163805   
C23      C      0.965450000000     0.465450000000     0.831970000000     0.421291   
C24      C      0.943700000000     0.443700000000     0.879040000000    -0.163807   
C25      C      0.762870000000     0.034550000000     0.668030000000     0.421313   
C26      C      0.766440000000     0.056300000000     0.620960000000    -0.163815   
C27      C      0.534550000000     0.262870000000     0.534550000000     0.421289   
C28      C      0.556300000000     0.266440000000     0.556300000000    -0.163794   
C29      C      0.534550000000     0.168030000000     0.534550000000     0.421291   
C30      C      0.556300000000     0.120960000000     0.556300000000    -0.163802   
C31      C      0.668030000000     0.034550000000     0.762870000000     0.421306   
C32      C      0.620960000000     0.056300000000     0.766440000000    -0.163811   
C33      C      0.668030000000     0.034550000000     0.534550000000     0.421305   
C34      C      0.620960000000     0.056300000000     0.556300000000    -0.16381    
C35      C      0.534550000000     0.262870000000     0.668030000000     0.421289   
C36      C      0.556300000000     0.266440000000     0.620960000000    -0.163794   
C37      C      0.534550000000     0.168030000000     0.762870000000     0.421291   
C38      C      0.556300000000     0.120960000000     0.766440000000    -0.163802   
C39      C      0.762870000000     0.034550000000     0.534550000000     0.421312   
C40      C      0.766440000000     0.056300000000     0.556300000000    -0.163814   
C41      C      0.534550000000     0.034550000000     0.762870000000     0.421296   
C42      C      0.556300000000     0.056300000000     0.766440000000    -0.163809   
C43      C      0.668030000000     0.262870000000     0.534550000000     0.421289   
C44      C      0.620960000000     0.266440000000     0.556300000000    -0.163794   
C45      C      0.762870000000     0.168030000000     0.534550000000     0.421292   
C46      C      0.766440000000     0.120960000000     0.556300000000    -0.163805   
C47      C      0.534550000000     0.034550000000     0.668030000000     0.421295   
C48      C      0.556300000000     0.056300000000     0.620960000000    -0.163809   
C49      C      0.900750000000     0.233610000000     0.900750000000     0.104111   
C50      C      0.733610000000     0.400750000000     0.964890000000     0.1041     
C51      C      0.900750000000     0.464890000000     0.900750000000     0.104106   
C52      C      0.964890000000     0.400750000000     0.733610000000     0.10411    
C53      C      0.900750000000     0.400750000000     0.964890000000     0.104106   
C54      C      0.733610000000     0.464890000000     0.900750000000     0.1041     
C55      C      0.900750000000     0.400750000000     0.733610000000     0.104108   
C56      C      0.964890000000     0.233610000000     0.900750000000     0.104115   
C57      C      0.900750000000     0.464890000000     0.733610000000     0.104107   
C58      C      0.733610000000     0.400750000000     0.900750000000     0.1041     
C59      C      0.900750000000     0.233610000000     0.964890000000     0.10411    
C60      C      0.964890000000     0.400750000000     0.900750000000     0.104109   
C61      C      0.766390000000     0.099250000000     0.599250000000     0.104112   
C62      C      0.599250000000     0.266390000000     0.535110000000     0.1041     
C63      C      0.535110000000     0.099250000000     0.599250000000     0.104107   
C64      C      0.599250000000     0.035110000000     0.766390000000     0.104112   
C65      C      0.599250000000     0.099250000000     0.535110000000     0.104108   
C66      C      0.535110000000     0.266390000000     0.599250000000     0.1041     
C67      C      0.599250000000     0.099250000000     0.766390000000     0.104109   
C68      C      0.766390000000     0.035110000000     0.599250000000     0.104117   
C69      C      0.535110000000     0.099250000000     0.766390000000     0.104108   
C70      C      0.599250000000     0.266390000000     0.599250000000     0.1041     
C71      C      0.766390000000     0.099250000000     0.535110000000     0.104112   
C72      C      0.599250000000     0.035110000000     0.599250000000     0.104111   
O1       O      0.503700000000     0.239340000000     0.813230000000    -0.435604   
O2       O      0.739340000000     0.003700000000     0.943730000000    -0.435601   
O3       O      0.813230000000     0.443730000000     0.503700000000    -0.435605   
O4       O      0.943730000000     0.313230000000     0.739340000000    -0.435608   
O5       O      0.503700000000     0.313230000000     0.943730000000    -0.435604   
O6       O      0.739340000000     0.443730000000     0.813230000000    -0.435604   
O7       O      0.813230000000     0.003700000000     0.739340000000    -0.435598   
O8       O      0.943730000000     0.239340000000     0.503700000000    -0.43561    
O9       O      0.503700000000     0.443730000000     0.739340000000    -0.435604   
O10      O      0.739340000000     0.313230000000     0.503700000000    -0.435604   
O11      O      0.813230000000     0.239340000000     0.943730000000    -0.435605   
O12      O      0.943730000000     0.003700000000     0.813230000000    -0.435576   
O13      O      0.760660000000     0.496300000000     0.686770000000    -0.435604   
O14      O      0.996300000000     0.260660000000     0.556270000000    -0.435606   
O15      O      0.556270000000     0.186770000000     0.996300000000    -0.435604   
O16      O      0.686770000000     0.056270000000     0.760660000000    -0.435609   
O17      O      0.686770000000     0.496300000000     0.556270000000    -0.435604   
O18      O      0.556270000000     0.260660000000     0.686770000000    -0.435604   
O19      O      0.996300000000     0.186770000000     0.760660000000    -0.4356     
O20      O      0.760660000000     0.056270000000     0.996300000000    -0.435609   
O21      O      0.556270000000     0.496300000000     0.760660000000    -0.435604   
O22      O      0.686770000000     0.260660000000     0.996300000000    -0.435604   
O23      O      0.760660000000     0.186770000000     0.556270000000    -0.435605   
O24      O      0.996300000000     0.056270000000     0.686770000000    -0.435579   
O25      O      0.996300000000     0.260660000000     0.686770000000    -0.435607   
O26      O      0.760660000000     0.496300000000     0.556270000000    -0.435604   
O27      O      0.686770000000     0.056270000000     0.996300000000    -0.435606   
O28      O      0.556270000000     0.186770000000     0.760660000000    -0.435605   
O29      O      0.996300000000     0.186770000000     0.556270000000    -0.435599   
O30      O      0.760660000000     0.056270000000     0.686770000000    -0.435611   
O31      O      0.686770000000     0.496300000000     0.760660000000    -0.435604   
O32      O      0.556270000000     0.260660000000     0.996300000000    -0.435603   
O33      O      0.996300000000     0.056270000000     0.760660000000    -0.43558    
O34      O      0.760660000000     0.186770000000     0.996300000000    -0.435606   
O35      O      0.686770000000     0.260660000000     0.556270000000    -0.435604   
O36      O      0.556270000000     0.496300000000     0.686770000000    -0.435604   
O37      O      0.739340000000     0.003700000000     0.813230000000    -0.435604   
O38      O      0.503700000000     0.239340000000     0.943730000000    -0.435605   
O39      O      0.943730000000     0.313230000000     0.503700000000    -0.435609   
O40      O      0.813230000000     0.443730000000     0.739340000000    -0.435605   
O41      O      0.813230000000     0.003700000000     0.943730000000    -0.435594   
O42      O      0.943730000000     0.239340000000     0.813230000000    -0.43561    
O43      O      0.503700000000     0.313230000000     0.739340000000    -0.435604   
O44      O      0.739340000000     0.443730000000     0.503700000000    -0.435604   
O45      O      0.943730000000     0.003700000000     0.739340000000    -0.435577   
O46      O      0.813230000000     0.239340000000     0.503700000000    -0.435605   
O47      O      0.739340000000     0.313230000000     0.943730000000    -0.435604   
O48      O      0.503700000000     0.443730000000     0.813230000000    -0.435604   
Cu1      Cu     0.534930000000     0.750000000000     0.250000000000     0.966209   
Cu2      Cu     0.750000000000     0.534930000000     0.465070000000     0.966209   
Cu3      Cu     0.750000000000     0.965070000000     0.034930000000     0.966185   
Cu4      Cu     0.965070000000     0.750000000000     0.250000000000     0.966186   
Cu5      Cu     0.534930000000     0.750000000000     0.465070000000     0.966209   
Cu6      Cu     0.750000000000     0.965070000000     0.250000000000     0.966186   
Cu7      Cu     0.750000000000     0.534930000000     0.250000000000     0.966209   
Cu8      Cu     0.965070000000     0.750000000000     0.034930000000     0.966185   
Cu9      Cu     0.534930000000     0.965070000000     0.250000000000     0.9662     
Cu10     Cu     0.750000000000     0.750000000000     0.034930000000     0.96621    
Cu11     Cu     0.750000000000     0.750000000000     0.465070000000     0.966208   
Cu12     Cu     0.965070000000     0.534930000000     0.250000000000     0.9662     
H1       H      0.886300000000     0.733700000000     0.386300000000     0.0265302  
H2       H      0.733700000000     0.886300000000     0.493700000000     0.0265302  
H3       H      0.886300000000     0.993700000000     0.386300000000     0.0265115  
H4       H      0.993700000000     0.886300000000     0.233700000000     0.0265116  
H5       H      0.886300000000     0.886300000000     0.493700000000     0.0265311  
H6       H      0.733700000000     0.993700000000     0.386300000000     0.0265118  
H7       H      0.886300000000     0.886300000000     0.233700000000     0.026531   
H8       H      0.993700000000     0.733700000000     0.386300000000     0.0265118  
H9       H      0.886300000000     0.993700000000     0.233700000000     0.0265116  
H10      H      0.733700000000     0.886300000000     0.386300000000     0.0265302  
H11      H      0.886300000000     0.733700000000     0.493700000000     0.0265302  
H12      H      0.993700000000     0.886300000000     0.386300000000     0.0265115  
H13      H      0.766300000000     0.613700000000     0.113700000000     0.02653    
H14      H      0.613700000000     0.766300000000     0.006300000000     0.02653    
H15      H      0.506300000000     0.613700000000     0.113700000000     0.026531   
H16      H      0.613700000000     0.506300000000     0.266300000000     0.0265313  
H17      H      0.613700000000     0.613700000000     0.006300000000     0.0265308  
H18      H      0.506300000000     0.766300000000     0.113700000000     0.0265301  
H19      H      0.613700000000     0.613700000000     0.266300000000     0.0265313  
H20      H      0.766300000000     0.506300000000     0.113700000000     0.0265301  
H21      H      0.506300000000     0.613700000000     0.266300000000     0.0265313  
H22      H      0.613700000000     0.766300000000     0.113700000000     0.02653    
H23      H      0.766300000000     0.613700000000     0.006300000000     0.02653    
H24      H      0.613700000000     0.506300000000     0.113700000000     0.026531   
C1       C      0.965450000000     0.737130000000     0.331970000000     0.42127    
C2       C      0.943700000000     0.733560000000     0.379040000000    -0.163798   
C3       C      0.737130000000     0.965450000000     0.465450000000     0.421269   
C4       C      0.733560000000     0.943700000000     0.443700000000    -0.163798   
C5       C      0.831970000000     0.965450000000     0.465450000000     0.421259   
C6       C      0.879040000000     0.943700000000     0.443700000000    -0.163793   
C7       C      0.965450000000     0.831970000000     0.237130000000     0.42126    
C8       C      0.943700000000     0.879040000000     0.233560000000    -0.163794   
C9       C      0.965450000000     0.831970000000     0.465450000000     0.421259   
C10      C      0.943700000000     0.879040000000     0.443700000000    -0.163793   
C11      C      0.737130000000     0.965450000000     0.331970000000     0.42127    
C12      C      0.733560000000     0.943700000000     0.379040000000    -0.163798   
C13      C      0.831970000000     0.965450000000     0.237130000000     0.42126    
C14      C      0.879040000000     0.943700000000     0.233560000000    -0.163794   
C15      C      0.965450000000     0.737130000000     0.465450000000     0.421269   
C16      C      0.943700000000     0.733560000000     0.443700000000    -0.163798   
C17      C      0.965450000000     0.965450000000     0.237130000000     0.421211   
C18      C      0.943700000000     0.943700000000     0.233560000000    -0.163788   
C19      C      0.737130000000     0.831970000000     0.465450000000     0.421289   
C20      C      0.733560000000     0.879040000000     0.443700000000    -0.163796   
C21      C      0.831970000000     0.737130000000     0.465450000000     0.421289   
C22      C      0.879040000000     0.733560000000     0.443700000000    -0.163796   
C23      C      0.965450000000     0.965450000000     0.331970000000     0.421209   
C24      C      0.943700000000     0.943700000000     0.379040000000    -0.163788   
C25      C      0.762870000000     0.534550000000     0.168030000000     0.421289   
C26      C      0.766440000000     0.556300000000     0.120960000000    -0.163796   
C27      C      0.534550000000     0.762870000000     0.034550000000     0.421291   
C28      C      0.556300000000     0.766440000000     0.056300000000    -0.163797   
C29      C      0.534550000000     0.668030000000     0.034550000000     0.421291   
C30      C      0.556300000000     0.620960000000     0.056300000000    -0.163795   
C31      C      0.668030000000     0.534550000000     0.262870000000     0.421289   
C32      C      0.620960000000     0.556300000000     0.266440000000    -0.163794   
C33      C      0.668030000000     0.534550000000     0.034550000000     0.421291   
C34      C      0.620960000000     0.556300000000     0.056300000000    -0.163795   
C35      C      0.534550000000     0.762870000000     0.168030000000     0.421289   
C36      C      0.556300000000     0.766440000000     0.120960000000    -0.163796   
C37      C      0.534550000000     0.668030000000     0.262870000000     0.421289   
C38      C      0.556300000000     0.620960000000     0.266440000000    -0.163794   
C39      C      0.762870000000     0.534550000000     0.034550000000     0.421291   
C40      C      0.766440000000     0.556300000000     0.056300000000    -0.163797   
C41      C      0.534550000000     0.534550000000     0.262870000000     0.421289   
C42      C      0.556300000000     0.556300000000     0.266440000000    -0.163794   
C43      C      0.668030000000     0.762870000000     0.034550000000     0.421292   
C44      C      0.620960000000     0.766440000000     0.056300000000    -0.163797   
C45      C      0.762870000000     0.668030000000     0.034550000000     0.421292   
C46      C      0.766440000000     0.620960000000     0.056300000000    -0.163797   
C47      C      0.534550000000     0.534550000000     0.168030000000     0.421289   
C48      C      0.556300000000     0.556300000000     0.120960000000    -0.163795   
C49      C      0.900750000000     0.733610000000     0.400750000000     0.104099   
C50      C      0.733610000000     0.900750000000     0.464890000000     0.104099   
C51      C      0.900750000000     0.964890000000     0.400750000000     0.104084   
C52      C      0.964890000000     0.900750000000     0.233610000000     0.104084   
C53      C      0.900750000000     0.900750000000     0.464890000000     0.104089   
C54      C      0.733610000000     0.964890000000     0.400750000000     0.104098   
C55      C      0.900750000000     0.900750000000     0.233610000000     0.10409    
C56      C      0.964890000000     0.733610000000     0.400750000000     0.104098   
C57      C      0.900750000000     0.964890000000     0.233610000000     0.104084   
C58      C      0.733610000000     0.900750000000     0.400750000000     0.104099   
C59      C      0.900750000000     0.733610000000     0.464890000000     0.104099   
C60      C      0.964890000000     0.900750000000     0.400750000000     0.104084   
C61      C      0.766390000000     0.599250000000     0.099250000000     0.104101   
C62      C      0.599250000000     0.766390000000     0.035110000000     0.104102   
C63      C      0.535110000000     0.599250000000     0.099250000000     0.104101   
C64      C      0.599250000000     0.535110000000     0.266390000000     0.1041     
C65      C      0.599250000000     0.599250000000     0.035110000000     0.104101   
C66      C      0.535110000000     0.766390000000     0.099250000000     0.104101   
C67      C      0.599250000000     0.599250000000     0.266390000000     0.1041     
C68      C      0.766390000000     0.535110000000     0.099250000000     0.104101   
C69      C      0.535110000000     0.599250000000     0.266390000000     0.1041     
C70      C      0.599250000000     0.766390000000     0.099250000000     0.104101   
C71      C      0.766390000000     0.599250000000     0.035110000000     0.104102   
C72      C      0.599250000000     0.535110000000     0.099250000000     0.104101   
O1       O      0.503700000000     0.739340000000     0.313230000000    -0.435604   
O2       O      0.739340000000     0.503700000000     0.443730000000    -0.435604   
O3       O      0.813230000000     0.943730000000     0.003700000000    -0.435595   
O4       O      0.943730000000     0.813230000000     0.239340000000    -0.435601   
O5       O      0.503700000000     0.813230000000     0.443730000000    -0.435605   
O6       O      0.739340000000     0.943730000000     0.313230000000    -0.435601   
O7       O      0.813230000000     0.503700000000     0.239340000000    -0.435605   
O8       O      0.943730000000     0.739340000000     0.003700000000    -0.435596   
O9       O      0.503700000000     0.943730000000     0.239340000000    -0.435607   
O10      O      0.739340000000     0.813230000000     0.003700000000    -0.435602   
O11      O      0.813230000000     0.739340000000     0.443730000000    -0.435605   
O12      O      0.943730000000     0.503700000000     0.313230000000    -0.435607   
O13      O      0.760660000000     0.996300000000     0.186770000000    -0.435638   
O14      O      0.996300000000     0.760660000000     0.056270000000    -0.435637   
O15      O      0.556270000000     0.686770000000     0.496300000000    -0.435604   
O16      O      0.686770000000     0.556270000000     0.260660000000    -0.435604   
O17      O      0.686770000000     0.996300000000     0.056270000000    -0.435629   
O18      O      0.556270000000     0.760660000000     0.186770000000    -0.435605   
O19      O      0.996300000000     0.686770000000     0.260660000000    -0.435631   
O20      O      0.760660000000     0.556270000000     0.496300000000    -0.435605   
O21      O      0.556270000000     0.996300000000     0.260660000000    -0.435625   
O22      O      0.686770000000     0.760660000000     0.496300000000    -0.435604   
O23      O      0.760660000000     0.686770000000     0.056270000000    -0.435605   
O24      O      0.996300000000     0.556270000000     0.186770000000    -0.435624   
O25      O      0.996300000000     0.760660000000     0.186770000000    -0.435638   
O26      O      0.760660000000     0.996300000000     0.056270000000    -0.435637   
O27      O      0.686770000000     0.556270000000     0.496300000000    -0.435604   
O28      O      0.556270000000     0.686770000000     0.260660000000    -0.435604   
O29      O      0.996300000000     0.686770000000     0.056270000000    -0.435629   
O30      O      0.760660000000     0.556270000000     0.186770000000    -0.435605   
O31      O      0.686770000000     0.996300000000     0.260660000000    -0.435631   
O32      O      0.556270000000     0.760660000000     0.496300000000    -0.435605   
O33      O      0.996300000000     0.556270000000     0.260660000000    -0.435625   
O34      O      0.760660000000     0.686770000000     0.496300000000    -0.435604   
O35      O      0.686770000000     0.760660000000     0.056270000000    -0.435605   
O36      O      0.556270000000     0.996300000000     0.186770000000    -0.435624   
O37      O      0.739340000000     0.503700000000     0.313230000000    -0.435604   
O38      O      0.503700000000     0.739340000000     0.443730000000    -0.435604   
O39      O      0.943730000000     0.813230000000     0.003700000000    -0.435595   
O40      O      0.813230000000     0.943730000000     0.239340000000    -0.435601   
O41      O      0.813230000000     0.503700000000     0.443730000000    -0.435605   
O42      O      0.943730000000     0.739340000000     0.313230000000    -0.435601   
O43      O      0.503700000000     0.813230000000     0.239340000000    -0.435605   
O44      O      0.739340000000     0.943730000000     0.003700000000    -0.435596   
O45      O      0.943730000000     0.503700000000     0.239340000000    -0.435607   
O46      O      0.813230000000     0.739340000000     0.003700000000    -0.435602   
O47      O      0.739340000000     0.813230000000     0.443730000000    -0.435605   
O48      O      0.503700000000     0.943730000000     0.313230000000    -0.435607   
Cu1      Cu     0.534930000000     0.750000000000     0.750000000000     0.966209   
Cu2      Cu     0.750000000000     0.534930000000     0.965070000000     0.966207   
Cu3      Cu     0.750000000000     0.965070000000     0.534930000000     0.966186   
Cu4      Cu     0.965070000000     0.750000000000     0.750000000000     0.966184   
Cu5      Cu     0.534930000000     0.750000000000     0.965070000000     0.966207   
Cu6      Cu     0.750000000000     0.965070000000     0.750000000000     0.966184   
Cu7      Cu     0.750000000000     0.534930000000     0.750000000000     0.966209   
Cu8      Cu     0.965070000000     0.750000000000     0.534930000000     0.966186   
Cu9      Cu     0.534930000000     0.965070000000     0.750000000000     0.966198   
Cu10     Cu     0.750000000000     0.750000000000     0.534930000000     0.966208   
Cu11     Cu     0.750000000000     0.750000000000     0.965070000000     0.966205   
Cu12     Cu     0.965070000000     0.534930000000     0.750000000000     0.966198   
H1       H      0.886300000000     0.733700000000     0.886300000000     0.0265308  
H2       H      0.733700000000     0.886300000000     0.993700000000     0.026529   
H3       H      0.886300000000     0.993700000000     0.886300000000     0.0265119  
H4       H      0.993700000000     0.886300000000     0.733700000000     0.0265114  
H5       H      0.886300000000     0.886300000000     0.993700000000     0.0265303  
H6       H      0.733700000000     0.993700000000     0.886300000000     0.0265117  
H7       H      0.886300000000     0.886300000000     0.733700000000     0.0265316  
H8       H      0.993700000000     0.733700000000     0.886300000000     0.0265117  
H9       H      0.886300000000     0.993700000000     0.733700000000     0.0265114  
H10      H      0.733700000000     0.886300000000     0.886300000000     0.0265308  
H11      H      0.886300000000     0.733700000000     0.993700000000     0.026529   
H12      H      0.993700000000     0.886300000000     0.886300000000     0.0265119  
H13      H      0.766300000000     0.613700000000     0.613700000000     0.0265303  
H14      H      0.613700000000     0.766300000000     0.506300000000     0.0265304  
H15      H      0.506300000000     0.613700000000     0.613700000000     0.0265313  
H16      H      0.613700000000     0.506300000000     0.766300000000     0.0265313  
H17      H      0.613700000000     0.613700000000     0.506300000000     0.0265313  
H18      H      0.506300000000     0.766300000000     0.613700000000     0.0265305  
H19      H      0.613700000000     0.613700000000     0.766300000000     0.0265313  
H20      H      0.766300000000     0.506300000000     0.613700000000     0.0265305  
H21      H      0.506300000000     0.613700000000     0.766300000000     0.0265313  
H22      H      0.613700000000     0.766300000000     0.613700000000     0.0265303  
H23      H      0.766300000000     0.613700000000     0.506300000000     0.0265304  
H24      H      0.613700000000     0.506300000000     0.613700000000     0.0265313  
C1       C      0.965450000000     0.737130000000     0.831970000000     0.421266   
C2       C      0.943700000000     0.733560000000     0.879040000000    -0.163796   
C3       C      0.737130000000     0.965450000000     0.965450000000     0.421259   
C4       C      0.733560000000     0.943700000000     0.943700000000    -0.163795   
C5       C      0.831970000000     0.965450000000     0.965450000000     0.421248   
C6       C      0.879040000000     0.943700000000     0.943700000000    -0.163789   
C7       C      0.965450000000     0.831970000000     0.737130000000     0.421257   
C8       C      0.943700000000     0.879040000000     0.733560000000    -0.163792   
C9       C      0.965450000000     0.831970000000     0.965450000000     0.421248   
C10      C      0.943700000000     0.879040000000     0.943700000000    -0.163789   
C11      C      0.737130000000     0.965450000000     0.831970000000     0.421266   
C12      C      0.733560000000     0.943700000000     0.879040000000    -0.163796   
C13      C      0.831970000000     0.965450000000     0.737130000000     0.421257   
C14      C      0.879040000000     0.943700000000     0.733560000000    -0.163792   
C15      C      0.965450000000     0.737130000000     0.965450000000     0.421259   
C16      C      0.943700000000     0.733560000000     0.943700000000    -0.163795   
C17      C      0.965450000000     0.965450000000     0.737130000000     0.421203   
C18      C      0.943700000000     0.943700000000     0.733560000000    -0.163786   
C19      C      0.737130000000     0.831970000000     0.965450000000     0.421284   
C20      C      0.733560000000     0.879040000000     0.943700000000    -0.163794   
C21      C      0.831970000000     0.737130000000     0.965450000000     0.421284   
C22      C      0.879040000000     0.733560000000     0.943700000000    -0.163794   
C23      C      0.965450000000     0.965450000000     0.831970000000     0.421201   
C24      C      0.943700000000     0.943700000000     0.879040000000    -0.163784   
C25      C      0.762870000000     0.534550000000     0.668030000000     0.421289   
C26      C      0.766440000000     0.556300000000     0.620960000000    -0.163796   
C27      C      0.534550000000     0.762870000000     0.534550000000     0.421289   
C28      C      0.556300000000     0.766440000000     0.556300000000    -0.163796   
C29      C      0.534550000000     0.668030000000     0.534550000000     0.421289   
C30      C      0.556300000000     0.620960000000     0.556300000000    -0.163794   
C31      C      0.668030000000     0.534550000000     0.762870000000     0.421289   
C32      C      0.620960000000     0.556300000000     0.766440000000    -0.163794   
C33      C      0.668030000000     0.534550000000     0.534550000000     0.421289   
C34      C      0.620960000000     0.556300000000     0.556300000000    -0.163794   
C35      C      0.534550000000     0.762870000000     0.668030000000     0.421289   
C36      C      0.556300000000     0.766440000000     0.620960000000    -0.163796   
C37      C      0.534550000000     0.668030000000     0.762870000000     0.421289   
C38      C      0.556300000000     0.620960000000     0.766440000000    -0.163794   
C39      C      0.762870000000     0.534550000000     0.534550000000     0.421289   
C40      C      0.766440000000     0.556300000000     0.556300000000    -0.163796   
C41      C      0.534550000000     0.534550000000     0.762870000000     0.421289   
C42      C      0.556300000000     0.556300000000     0.766440000000    -0.163794   
C43      C      0.668030000000     0.762870000000     0.534550000000     0.421289   
C44      C      0.620960000000     0.766440000000     0.556300000000    -0.163796   
C45      C      0.762870000000     0.668030000000     0.534550000000     0.421289   
C46      C      0.766440000000     0.620960000000     0.556300000000    -0.163796   
C47      C      0.534550000000     0.534550000000     0.668030000000     0.421289   
C48      C      0.556300000000     0.556300000000     0.620960000000    -0.163794   
C49      C      0.900750000000     0.733610000000     0.900750000000     0.104096   
C50      C      0.733610000000     0.900750000000     0.964890000000     0.104095   
C51      C      0.900750000000     0.964890000000     0.900750000000     0.104079   
C52      C      0.964890000000     0.900750000000     0.733610000000     0.104082   
C53      C      0.900750000000     0.900750000000     0.964890000000     0.104084   
C54      C      0.733610000000     0.964890000000     0.900750000000     0.104094   
C55      C      0.900750000000     0.900750000000     0.733610000000     0.104087   
C56      C      0.964890000000     0.733610000000     0.900750000000     0.104094   
C57      C      0.900750000000     0.964890000000     0.733610000000     0.104082   
C58      C      0.733610000000     0.900750000000     0.900750000000     0.104096   
C59      C      0.900750000000     0.733610000000     0.964890000000     0.104095   
C60      C      0.964890000000     0.900750000000     0.900750000000     0.104079   
C61      C      0.766390000000     0.599250000000     0.599250000000     0.1041     
C62      C      0.599250000000     0.766390000000     0.535110000000     0.1041     
C63      C      0.535110000000     0.599250000000     0.599250000000     0.1041     
C64      C      0.599250000000     0.535110000000     0.766390000000     0.1041     
C65      C      0.599250000000     0.599250000000     0.535110000000     0.1041     
C66      C      0.535110000000     0.766390000000     0.599250000000     0.1041     
C67      C      0.599250000000     0.599250000000     0.766390000000     0.1041     
C68      C      0.766390000000     0.535110000000     0.599250000000     0.1041     
C69      C      0.535110000000     0.599250000000     0.766390000000     0.1041     
C70      C      0.599250000000     0.766390000000     0.599250000000     0.1041     
C71      C      0.766390000000     0.599250000000     0.535110000000     0.1041     
C72      C      0.599250000000     0.535110000000     0.599250000000     0.1041     
O1       O      0.503700000000     0.739340000000     0.813230000000    -0.435604   
O2       O      0.739340000000     0.503700000000     0.943730000000    -0.435603   
O3       O      0.813230000000     0.943730000000     0.503700000000    -0.435601   
O4       O      0.943730000000     0.813230000000     0.739340000000    -0.4356     
O5       O      0.503700000000     0.813230000000     0.943730000000    -0.435605   
O6       O      0.739340000000     0.943730000000     0.813230000000    -0.4356     
O7       O      0.813230000000     0.503700000000     0.739340000000    -0.435605   
O8       O      0.943730000000     0.739340000000     0.503700000000    -0.435601   
O9       O      0.503700000000     0.943730000000     0.739340000000    -0.435607   
O10      O      0.739340000000     0.813230000000     0.503700000000    -0.435605   
O11      O      0.813230000000     0.739340000000     0.943730000000    -0.435604   
O12      O      0.943730000000     0.503700000000     0.813230000000    -0.435607   
O13      O      0.760660000000     0.996300000000     0.686770000000    -0.435641   
O14      O      0.996300000000     0.760660000000     0.556270000000    -0.435641   
O15      O      0.556270000000     0.686770000000     0.996300000000    -0.435606   
O16      O      0.686770000000     0.556270000000     0.760660000000    -0.435604   
O17      O      0.686770000000     0.996300000000     0.556270000000    -0.435633   
O18      O      0.556270000000     0.760660000000     0.686770000000    -0.435605   
O19      O      0.996300000000     0.686770000000     0.760660000000    -0.435634   
O20      O      0.760660000000     0.556270000000     0.996300000000    -0.435608   
O21      O      0.556270000000     0.996300000000     0.760660000000    -0.435628   
O22      O      0.686770000000     0.760660000000     0.996300000000    -0.435608   
O23      O      0.760660000000     0.686770000000     0.556270000000    -0.435604   
O24      O      0.996300000000     0.556270000000     0.686770000000    -0.435627   
O25      O      0.996300000000     0.760660000000     0.686770000000    -0.435641   
O26      O      0.760660000000     0.996300000000     0.556270000000    -0.435641   
O27      O      0.686770000000     0.556270000000     0.996300000000    -0.435606   
O28      O      0.556270000000     0.686770000000     0.760660000000    -0.435604   
O29      O      0.996300000000     0.686770000000     0.556270000000    -0.435633   
O30      O      0.760660000000     0.556270000000     0.686770000000    -0.435605   
O31      O      0.686770000000     0.996300000000     0.760660000000    -0.435634   
O32      O      0.556270000000     0.760660000000     0.996300000000    -0.435608   
O33      O      0.996300000000     0.556270000000     0.760660000000    -0.435628   
O34      O      0.760660000000     0.686770000000     0.996300000000    -0.435608   
O35      O      0.686770000000     0.760660000000     0.556270000000    -0.435604   
O36      O      0.556270000000     0.996300000000     0.686770000000    -0.435627   
O37      O      0.739340000000     0.503700000000     0.813230000000    -0.435604   
O38      O      0.503700000000     0.739340000000     0.943730000000    -0.435603   
O39      O      0.943730000000     0.813230000000     0.503700000000    -0.435601   
O40      O      0.813230000000     0.943730000000     0.739340000000    -0.4356     
O41      O      0.813230000000     0.503700000000     0.943730000000    -0.435605   
O42      O      0.943730000000     0.739340000000     0.813230000000    -0.4356     
O43      O      0.503700000000     0.813230000000     0.739340000000    -0.435605   
O44      O      0.739340000000     0.943730000000     0.503700000000    -0.435601   
O45      O      0.943730000000     0.503700000000     0.739340000000    -0.435607   
O46      O      0.813230000000     0.739340000000     0.503700000000    -0.435605   
O47      O      0.739340000000     0.813230000000     0.943730000000    -0.435604   
O48      O      0.503700000000     0.943730000000     0.813230000000    -0.435607   


