data_[CoreMOF]XOPLOE_clean

_audit_creation_method RASPA-1.0
_audit_creation_date 2025-1-26
_audit_author_name ''

_cell_length_a    32.1706
_cell_length_b    34.8338
_cell_length_c    38.7334
_cell_angle_alpha 69.09
_cell_angle_beta  65.463
_cell_angle_gamma 62.4985
_cell_volume      34282.5

_symmetry_cell_setting          triclinic
_symmetry_space_group_name_Hall 'P 1'
_symmetry_space_group_name_H-M  'P 1'
_symmetry_Int_Tables_number     1

_symmetry_equiv_pos_as_xyz 'x,y,z'

loop_
_atom_site_label
_atom_site_type_symbol
_atom_site_fract_x
_atom_site_fract_y
_atom_site_fract_z
_atom_site_charge
Cu1      Cu     0.258350000000     0.462140000000     0.024890000000     0.9741     
Cu2      Cu     0.228400000000     0.027880000000     0.273780000000     0.963743   
Cu3      Cu     0.245380000000     0.287860000000     0.225110000000     0.974091   
Cu4      Cu     0.030060000000     0.222120000000     0.476220000000     0.963753   
Cu5      Cu     0.241650000000     0.037860000000     0.475110000000     0.97409    
Cu6      Cu     0.271600000000     0.472120000000     0.226220000000     0.963743   
Cu7      Cu     0.254620000000     0.212140000000     0.274890000000     0.97409    
Cu8      Cu     0.469940000000     0.277880000000     0.023780000000     0.963743   
H1       H      0.408650000000     0.393050000000     0.461450000000    -0.00618834 
H2       H      0.487050000000     0.366650000000     0.419450000000     0.151395   
H3       H      0.464250000000     0.485400000000     0.347400000000     0.134278   
H4       H      0.383350000000     0.012650000000     0.388650000000    -0.0113394  
H5       H      0.106800000000     0.376450000000     0.306550000000     0.144493   
H6       H      0.172850000000     0.400550000000     0.277050000000    -0.00321174 
H7       H      0.098650000000     0.495050000000     0.341250000000    -0.0122854  
H8       H      0.033250000000     0.470500000000     0.369900000000     0.132149   
H9       H      0.309250000000     0.094550000000     0.008850000000    -0.0142167  
H10      H      0.333600000000     0.123700000000     0.038900000000     0.133425   
H11      H      0.314850000000     0.028600000000     0.135600000000     0.152201   
H12      H      0.289200000000     0.000500000000     0.105200000000    -0.0143109  
H13      H      0.419000000000     0.082850000000     0.054850000000     0.131364   
H14      H      0.465350000000     0.127000000000     0.027400000000    -0.0132025  
H15      H      0.372300000000     0.206400000000     0.103200000000    -0.0086104  
H16      H      0.321000000000     0.165800000000     0.128900000000     0.142731   
H17      H      0.263150000000     0.356950000000     0.288550000000    -0.00619045 
H18      H      0.273150000000     0.383350000000     0.330550000000     0.151397   
H19      H      0.297050000000     0.264600000000     0.402600000000     0.134281   
H20      H      0.284650000000     0.237350000000     0.361350000000    -0.011341   
H21      H      0.289800000000     0.373550000000     0.443450000000     0.144493   
H22      H      0.350450000000     0.349450000000     0.472950000000    -0.00321233 
H23      H      0.434950000000     0.254950000000     0.408750000000    -0.0122885  
H24      H      0.373650000000     0.279500000000     0.380100000000     0.132143   
H25      H      0.412650000000     0.155450000000     0.241150000000    -0.0142143  
H26      H      0.496200000000     0.126300000000     0.211100000000     0.133424   
H27      H      0.479050000000     0.221400000000     0.114400000000     0.152199   
H28      H      0.394900000000     0.249500000000     0.144800000000    -0.0143089  
H29      H      0.056700000000     0.167150000000     0.195150000000     0.131371   
H30      H      0.119750000000     0.123000000000     0.222600000000    -0.0132002  
H31      H      0.181900000000     0.043600000000     0.146800000000    -0.00861135 
H32      H      0.115700000000     0.084200000000     0.121100000000     0.142732   
H33      H      0.091350000000     0.106950000000     0.038550000000    -0.00618961 
H34      H      0.012950000000     0.133350000000     0.080550000000     0.151406   
H35      H      0.035750000000     0.014600000000     0.152600000000     0.134288   
H36      H      0.116650000000     0.487350000000     0.111350000000    -0.0113404  
H37      H      0.393200000000     0.123550000000     0.193450000000     0.144492   
H38      H      0.327150000000     0.099450000000     0.222950000000    -0.00321164 
H39      H      0.401350000000     0.004950000000     0.158750000000    -0.012288   
H40      H      0.466750000000     0.029500000000     0.130100000000     0.132142   
H41      H      0.190750000000     0.405450000000     0.491150000000    -0.0142152  
H42      H      0.166400000000     0.376300000000     0.461100000000     0.133426   
H43      H      0.185150000000     0.471400000000     0.364400000000     0.152201   
H44      H      0.210800000000     0.499500000000     0.394800000000    -0.0143102  
H45      H      0.081000000000     0.417150000000     0.445150000000     0.131368   
H46      H      0.034650000000     0.373000000000     0.472600000000    -0.0131955  
H47      H      0.127700000000     0.293600000000     0.396800000000    -0.00860987 
H48      H      0.179000000000     0.334200000000     0.371100000000     0.142731   
H49      H      0.236850000000     0.143050000000     0.211450000000    -0.00619004 
H50      H      0.226850000000     0.116650000000     0.169450000000     0.151397   
H51      H      0.202950000000     0.235400000000     0.097400000000     0.134281   
H52      H      0.215350000000     0.262650000000     0.138650000000    -0.0113399  
H53      H      0.210200000000     0.126450000000     0.056550000000     0.144492   
H54      H      0.149550000000     0.150550000000     0.027050000000    -0.00321118 
H55      H      0.065050000000     0.245050000000     0.091250000000    -0.0122825  
H56      H      0.126350000000     0.220500000000     0.119900000000     0.132145   
H57      H      0.087350000000     0.344550000000     0.258850000000    -0.0142148  
H58      H      0.003800000000     0.373700000000     0.288900000000     0.133436   
H59      H      0.020950000000     0.278600000000     0.385600000000     0.152207   
H60      H      0.105100000000     0.250500000000     0.355200000000    -0.014311   
H61      H      0.443300000000     0.332850000000     0.304850000000     0.131366   
H62      H      0.380250000000     0.377000000000     0.277400000000    -0.0132022  
H63      H      0.318100000000     0.456400000000     0.353200000000    -0.00861119 
H64      H      0.384300000000     0.415800000000     0.378900000000     0.142732   
C1       C      0.336400000000     0.472400000000     0.454900000000     0.452056   
C2       C      0.387450000000     0.455600000000     0.429400000000    -0.228756   
C3       C      0.419300000000     0.412150000000     0.438050000000     0.174559   
C4       C      0.465950000000     0.396450000000     0.413250000000    -0.282345   
C5       C      0.482150000000     0.423700000000     0.379500000000     0.320347   
C6       C      0.452500000000     0.466550000000     0.370450000000    -0.295878   
C7       C      0.404300000000     0.482950000000     0.395250000000     0.166902   
C8       C      0.063650000000     0.422750000000     0.339250000000     0.313283   
C9       C      0.105000000000     0.401150000000     0.313050000000    -0.273931   
C10      C      0.144500000000     0.415050000000     0.295850000000     0.157022   
C11      C      0.142250000000     0.450600000000     0.306300000000    -0.195253   
C12      C      0.100500000000     0.471000000000     0.333800000000     0.171556   
C13      C      0.061500000000     0.456700000000     0.350600000000    -0.290294   
C14      C      0.184850000000     0.466900000000     0.286300000000     0.427366   
C15      C      0.296400000000     0.044600000000     0.054100000000    -0.223308   
C16      C      0.309900000000     0.081450000000     0.034850000000     0.171557   
C17      C      0.324000000000     0.099000000000     0.052500000000    -0.281952   
C18      C      0.324050000000     0.079850000000     0.091250000000     0.313515   
C19      C      0.312750000000     0.042550000000     0.110050000000    -0.285277   
C20      C      0.298150000000     0.025700000000     0.091700000000     0.179008   
C21      C      0.364900000000     0.121150000000     0.093750000000     0.301083   
C22      C      0.408600000000     0.108750000000     0.064050000000    -0.287117   
C23      C      0.436200000000     0.134500000000     0.048400000000     0.174258   
C24      C      0.422700000000     0.171650000000     0.062350000000    -0.223861   
C25      C      0.380950000000     0.182100000000     0.092600000000     0.172895   
C26      C      0.350700000000     0.157550000000     0.108450000000    -0.270893   
C27      C      0.452450000000     0.200250000000     0.042250000000     0.439024   
C28      C      0.279300000000     0.027150000000     0.034650000000     0.436298   
C29      C      0.263700000000     0.277600000000     0.295100000000     0.45206    
C30      C      0.272450000000     0.294400000000     0.320600000000    -0.228762   
C31      C      0.269500000000     0.337850000000     0.311950000000     0.174565   
C32      C      0.275650000000     0.353550000000     0.336750000000    -0.282352   
C33      C      0.285350000000     0.326300000000     0.370500000000     0.320353   
C34      C      0.289500000000     0.283450000000     0.379550000000    -0.295885   
C35      C      0.282500000000     0.267050000000     0.354750000000     0.166908   
C36      C      0.325650000000     0.327250000000     0.410750000000     0.313282   
C37      C      0.319200000000     0.348850000000     0.436950000000    -0.273932   
C38      C      0.355400000000     0.334950000000     0.454150000000     0.157022   
C39      C      0.399150000000     0.299400000000     0.443700000000    -0.195255   
C40      C      0.405300000000     0.279000000000     0.416200000000     0.171555   
C41      C      0.368800000000     0.293300000000     0.399400000000    -0.290296   
C42      C      0.438050000000     0.283100000000     0.463700000000     0.427366   
C43      C      0.395100000000     0.205400000000     0.195900000000    -0.223303   
C44      C      0.426200000000     0.168550000000     0.215150000000     0.171552   
C45      C      0.475500000000     0.151000000000     0.197500000000    -0.281946   
C46      C      0.495150000000     0.170150000000     0.158750000000     0.31351    
C47      C      0.465350000000     0.207450000000     0.139950000000    -0.285272   
C48      C      0.415550000000     0.224300000000     0.158300000000     0.179003   
C49      C      0.079800000000     0.128850000000     0.156250000000     0.301087   
C50      C      0.081400000000     0.141250000000     0.185950000000    -0.287119   
C51      C      0.119100000000     0.115500000000     0.201600000000     0.174262   
C52      C      0.156700000000     0.078350000000     0.187650000000    -0.223863   
C53      C      0.155650000000     0.067900000000     0.157400000000     0.172899   
C54      C      0.116700000000     0.092450000000     0.141550000000    -0.270896   
C55      C      0.194950000000     0.049750000000     0.207750000000     0.439025   
C56      C      0.341100000000     0.222850000000     0.215350000000     0.436296   
C57      C      0.163600000000     0.027600000000     0.045100000000     0.452057   
C58      C      0.112550000000     0.044400000000     0.070600000000    -0.22876    
C59      C      0.080700000000     0.087850000000     0.061950000000     0.174568   
C60      C      0.034050000000     0.103550000000     0.086750000000    -0.282355   
C61      C      0.017850000000     0.076300000000     0.120500000000     0.320369   
C62      C      0.047500000000     0.033450000000     0.129550000000    -0.295888   
C63      C      0.095700000000     0.017050000000     0.104750000000     0.16691    
C64      C      0.436350000000     0.077250000000     0.160750000000     0.31328    
C65      C      0.395000000000     0.098850000000     0.186950000000    -0.27393    
C66      C      0.355500000000     0.084950000000     0.204150000000     0.157021   
C67      C      0.357750000000     0.049400000000     0.193700000000    -0.195253   
C68      C      0.399500000000     0.029000000000     0.166200000000     0.171553   
C69      C      0.438500000000     0.043300000000     0.149400000000    -0.290293   
C70      C      0.315150000000     0.033100000000     0.213700000000     0.427365   
C71      C      0.203600000000     0.455400000000     0.445900000000    -0.223307   
C72      C      0.190100000000     0.418550000000     0.465150000000     0.171558   
C73      C      0.176000000000     0.401000000000     0.447500000000    -0.281951   
C74      C      0.175950000000     0.420150000000     0.408750000000     0.313515   
C75      C      0.187250000000     0.457450000000     0.389950000000    -0.285276   
C76      C      0.201850000000     0.474300000000     0.408300000000     0.179009   
C77      C      0.135100000000     0.378850000000     0.406250000000     0.301082   
C78      C      0.091400000000     0.391250000000     0.435950000000    -0.287115   
C79      C      0.063800000000     0.365500000000     0.451600000000     0.174257   
C80      C      0.077300000000     0.328350000000     0.437650000000    -0.223858   
C81      C      0.119050000000     0.317900000000     0.407400000000     0.172894   
C82      C      0.149300000000     0.342450000000     0.391550000000    -0.270892   
C83      C      0.047550000000     0.299750000000     0.457750000000     0.439023   
C84      C      0.220700000000     0.472850000000     0.465350000000     0.4363     
C85      C      0.236300000000     0.222400000000     0.204900000000     0.45206    
C86      C      0.227550000000     0.205600000000     0.179400000000    -0.228761   
C87      C      0.230500000000     0.162150000000     0.188050000000     0.174565   
C88      C      0.224350000000     0.146450000000     0.163250000000    -0.282351   
C89      C      0.214650000000     0.173700000000     0.129500000000     0.320353   
C90      C      0.210500000000     0.216550000000     0.120450000000    -0.295884   
C91      C      0.217500000000     0.232950000000     0.145250000000     0.166909   
C92      C      0.174350000000     0.172750000000     0.089250000000     0.313281   
C93      C      0.180800000000     0.151150000000     0.063050000000    -0.27393    
C94      C      0.144600000000     0.165050000000     0.045850000000     0.15702    
C95      C      0.100850000000     0.200600000000     0.056300000000    -0.19525    
C96      C      0.094700000000     0.221000000000     0.083800000000     0.171553   
C97      C      0.131200000000     0.206700000000     0.100600000000    -0.290293   
C98      C      0.061950000000     0.216900000000     0.036300000000     0.427363   
C99      C      0.104900000000     0.294600000000     0.304100000000    -0.223308   
C100     C      0.073800000000     0.331450000000     0.284850000000     0.171562   
C101     C      0.024500000000     0.349000000000     0.302500000000    -0.281956   
C102     C      0.004850000000     0.329850000000     0.341250000000     0.313532   
C103     C      0.034650000000     0.292550000000     0.360050000000    -0.285282   
C104     C      0.084450000000     0.275700000000     0.341700000000     0.179012   
C105     C      0.420200000000     0.371150000000     0.343750000000     0.301084   
C106     C      0.418600000000     0.358750000000     0.314050000000    -0.287119   
C107     C      0.380900000000     0.384500000000     0.298400000000     0.17426    
C108     C      0.343300000000     0.421650000000     0.312350000000    -0.223863   
C109     C      0.344350000000     0.432100000000     0.342600000000     0.172898   
C110     C      0.383300000000     0.407550000000     0.358450000000    -0.270895   
C111     C      0.305050000000     0.450250000000     0.292250000000     0.439025   
C112     C      0.158900000000     0.277150000000     0.284650000000     0.436298   
O1       O      0.323600000000     0.447100000000     0.486300000000    -0.454034   
O2       O      0.309555000000     0.011240000000     0.443850000000    -0.451137   
O3       O      0.028050000000     0.404100000000     0.355300000000    -0.314444   
O4       O      0.182050000000     0.496600000000     0.299200000000    -0.448853   
O5       O      0.218850000000     0.449150000000     0.258650000000    -0.439367   
O6       O      0.279350000000     0.488200000000     0.049000000000    -0.442314   
O7       O      0.334700000000     0.096550000000     0.112250000000    -0.308841   
O8       O      0.489850000000     0.187900000000     0.014000000000    -0.453112   
O9       O      0.438050000000     0.234700000000     0.054300000000    -0.445106   
O10      O      0.266300000000     0.052550000000     0.005350000000    -0.451174   
O11      O      0.257000000000     0.302900000000     0.263700000000    -0.454036   
O12      O      0.264645000000     0.238760000000     0.306150000000    -0.451138   
O13      O      0.287450000000     0.345900000000     0.394700000000    -0.314449   
O14      O      0.477850000000     0.253400000000     0.450800000000    -0.448854   
O15      O      0.426650000000     0.300850000000     0.491350000000    -0.439368   
O16      O      0.316550000000     0.261800000000     0.201000000000    -0.442311   
O17      O      0.043500000000     0.153450000000     0.137750000000    -0.308837   
O18      O      0.191750000000     0.062100000000     0.236000000000    -0.453111   
O19      O      0.227050000000     0.015300000000     0.195700000000    -0.445107   
O20      O      0.324200000000     0.197450000000     0.244650000000    -0.451174   
O21      O      0.176400000000     0.052900000000     0.013700000000    -0.45403    
O22      O      0.190445000000     0.488760000000     0.056150000000    -0.451136   
O23      O      0.471950000000     0.095900000000     0.144700000000    -0.314447   
O24      O      0.317950000000     0.003400000000     0.200800000000    -0.448854   
O25      O      0.281150000000     0.050850000000     0.241350000000    -0.439367   
O26      O      0.220650000000     0.011800000000     0.451000000000    -0.442313   
O27      O      0.165300000000     0.403450000000     0.387750000000    -0.308841   
O28      O      0.010150000000     0.312100000000     0.486000000000    -0.453104   
O29      O      0.061950000000     0.265300000000     0.445700000000    -0.445106   
O30      O      0.233700000000     0.447450000000     0.494650000000    -0.451176   
O31      O      0.243000000000     0.197100000000     0.236300000000    -0.454035   
O32      O      0.235355000000     0.261240000000     0.193850000000    -0.451138   
O33      O      0.212550000000     0.154100000000     0.105300000000    -0.314448   
O34      O      0.022150000000     0.246600000000     0.049200000000    -0.44884    
O35      O      0.073350000000     0.199150000000     0.008650000000    -0.439361   
O36      O      0.183450000000     0.238200000000     0.299000000000    -0.442311   
O37      O      0.456500000000     0.346550000000     0.362250000000    -0.30884    
O38      O      0.308250000000     0.437900000000     0.264000000000    -0.453112   
O39      O      0.272950000000     0.484700000000     0.304300000000    -0.445107   
O40      O      0.175800000000     0.302550000000     0.255350000000    -0.451174   
Cu1      Cu     0.258350000000     0.462140000000     0.524890000000     0.97409    
Cu2      Cu     0.228400000000     0.027880000000     0.773780000000     0.963742   
Cu3      Cu     0.245380000000     0.287860000000     0.725110000000     0.974091   
Cu4      Cu     0.030060000000     0.222120000000     0.976220000000     0.963734   
Cu5      Cu     0.241650000000     0.037860000000     0.975110000000     0.974074   
Cu6      Cu     0.271600000000     0.472120000000     0.726220000000     0.963743   
Cu7      Cu     0.254620000000     0.212140000000     0.774890000000     0.97409    
Cu8      Cu     0.469940000000     0.277880000000     0.523780000000     0.963743   
H1       H      0.408650000000     0.393050000000     0.961450000000    -0.00618934 
H2       H      0.487050000000     0.366650000000     0.919450000000     0.151395   
H3       H      0.464250000000     0.485400000000     0.847400000000     0.134278   
H4       H      0.383350000000     0.012650000000     0.888650000000    -0.0113402  
H5       H      0.106800000000     0.376450000000     0.806550000000     0.144493   
H6       H      0.172850000000     0.400550000000     0.777050000000    -0.00321212 
H7       H      0.098650000000     0.495050000000     0.841250000000    -0.0122866  
H8       H      0.033250000000     0.470500000000     0.869900000000     0.132147   
H9       H      0.309250000000     0.094550000000     0.508850000000    -0.0142161  
H10      H      0.333600000000     0.123700000000     0.538900000000     0.133426   
H11      H      0.314850000000     0.028600000000     0.635600000000     0.152201   
H12      H      0.289200000000     0.000500000000     0.605200000000    -0.0143109  
H13      H      0.419000000000     0.082850000000     0.554850000000     0.131365   
H14      H      0.465350000000     0.127000000000     0.527400000000    -0.0132013  
H15      H      0.372300000000     0.206400000000     0.603200000000    -0.00861036 
H16      H      0.321000000000     0.165800000000     0.628900000000     0.142731   
H17      H      0.263150000000     0.356950000000     0.788550000000    -0.00619039 
H18      H      0.273150000000     0.383350000000     0.830550000000     0.151397   
H19      H      0.297050000000     0.264600000000     0.902600000000     0.13428    
H20      H      0.284650000000     0.237350000000     0.861350000000    -0.0113414  
H21      H      0.289800000000     0.373550000000     0.943450000000     0.144493   
H22      H      0.350450000000     0.349450000000     0.972950000000    -0.0032137  
H23      H      0.434950000000     0.254950000000     0.908750000000    -0.012289   
H24      H      0.373650000000     0.279500000000     0.880100000000     0.132143   
H25      H      0.412650000000     0.155450000000     0.741150000000    -0.0142144  
H26      H      0.496200000000     0.126300000000     0.711100000000     0.133424   
H27      H      0.479050000000     0.221400000000     0.614400000000     0.152199   
H28      H      0.394900000000     0.249500000000     0.644800000000    -0.014309   
H29      H      0.056700000000     0.167150000000     0.695150000000     0.13137    
H30      H      0.119750000000     0.123000000000     0.722600000000    -0.0132013  
H31      H      0.181900000000     0.043600000000     0.646800000000    -0.00861178 
H32      H      0.115700000000     0.084200000000     0.621100000000     0.142733   
H33      H      0.091350000000     0.106950000000     0.538550000000    -0.00618838 
H34      H      0.012950000000     0.133350000000     0.580550000000     0.1514     
H35      H      0.035750000000     0.014600000000     0.652600000000     0.134283   
H36      H      0.116650000000     0.487350000000     0.611350000000    -0.0113391  
H37      H      0.393200000000     0.123550000000     0.693450000000     0.144492   
H38      H      0.327150000000     0.099450000000     0.722950000000    -0.00321168 
H39      H      0.401350000000     0.004950000000     0.658750000000    -0.0122879  
H40      H      0.466750000000     0.029500000000     0.630100000000     0.132142   
H41      H      0.190750000000     0.405450000000     0.991150000000    -0.0142181  
H42      H      0.166400000000     0.376300000000     0.961100000000     0.133425   
H43      H      0.185150000000     0.471400000000     0.864400000000     0.152201   
H44      H      0.210800000000     0.499500000000     0.894800000000    -0.0143107  
H45      H      0.081000000000     0.417150000000     0.945150000000     0.131366   
H46      H      0.034650000000     0.373000000000     0.972600000000    -0.0131987  
H47      H      0.127700000000     0.293600000000     0.896800000000    -0.00861042 
H48      H      0.179000000000     0.334200000000     0.871100000000     0.142731   
H49      H      0.236850000000     0.143050000000     0.711450000000    -0.00619017 
H50      H      0.226850000000     0.116650000000     0.669450000000     0.151397   
H51      H      0.202950000000     0.235400000000     0.597400000000     0.134281   
H52      H      0.215350000000     0.262650000000     0.638650000000    -0.0113403  
H53      H      0.210200000000     0.126450000000     0.556550000000     0.144493   
H54      H      0.149550000000     0.150550000000     0.527050000000    -0.00321197 
H55      H      0.065050000000     0.245050000000     0.591250000000    -0.0122848  
H56      H      0.126350000000     0.220500000000     0.619900000000     0.132144   
H57      H      0.087350000000     0.344550000000     0.758850000000    -0.0142135  
H58      H      0.003800000000     0.373700000000     0.788900000000     0.133431   
H59      H      0.020950000000     0.278600000000     0.885600000000     0.152201   
H60      H      0.105100000000     0.250500000000     0.855200000000    -0.0143094  
H61      H      0.443300000000     0.332850000000     0.804850000000     0.131366   
H62      H      0.380250000000     0.377000000000     0.777400000000    -0.0132021  
H63      H      0.318100000000     0.456400000000     0.853200000000    -0.00861114 
H64      H      0.384300000000     0.415800000000     0.878900000000     0.142732   
C1       C      0.336400000000     0.472400000000     0.954900000000     0.452057   
C2       C      0.387450000000     0.455600000000     0.929400000000    -0.228757   
C3       C      0.419300000000     0.412150000000     0.938050000000     0.174559   
C4       C      0.465950000000     0.396450000000     0.913250000000    -0.282346   
C5       C      0.482150000000     0.423700000000     0.879500000000     0.320348   
C6       C      0.452500000000     0.466550000000     0.870450000000    -0.295879   
C7       C      0.404300000000     0.482950000000     0.895250000000     0.166903   
C8       C      0.063650000000     0.422750000000     0.839250000000     0.313285   
C9       C      0.105000000000     0.401150000000     0.813050000000    -0.273932   
C10      C      0.144500000000     0.415050000000     0.795850000000     0.157023   
C11      C      0.142250000000     0.450600000000     0.806300000000    -0.195254   
C12      C      0.100500000000     0.471000000000     0.833800000000     0.171556   
C13      C      0.061500000000     0.456700000000     0.850600000000    -0.290296   
C14      C      0.184850000000     0.466900000000     0.786300000000     0.427366   
C15      C      0.296400000000     0.044600000000     0.554100000000    -0.223308   
C16      C      0.309900000000     0.081450000000     0.534850000000     0.171557   
C17      C      0.324000000000     0.099000000000     0.552500000000    -0.281951   
C18      C      0.324050000000     0.079850000000     0.591250000000     0.313515   
C19      C      0.312750000000     0.042550000000     0.610050000000    -0.285277   
C20      C      0.298150000000     0.025700000000     0.591700000000     0.179008   
C21      C      0.364900000000     0.121150000000     0.593750000000     0.301083   
C22      C      0.408600000000     0.108750000000     0.564050000000    -0.287117   
C23      C      0.436200000000     0.134500000000     0.548400000000     0.174258   
C24      C      0.422700000000     0.171650000000     0.562350000000    -0.223861   
C25      C      0.380950000000     0.182100000000     0.592600000000     0.172895   
C26      C      0.350700000000     0.157550000000     0.608450000000    -0.270893   
C27      C      0.452450000000     0.200250000000     0.542250000000     0.439023   
C28      C      0.279300000000     0.027150000000     0.534650000000     0.436299   
C29      C      0.263700000000     0.277600000000     0.795100000000     0.45206    
C30      C      0.272450000000     0.294400000000     0.820600000000    -0.228762   
C31      C      0.269500000000     0.337850000000     0.811950000000     0.174565   
C32      C      0.275650000000     0.353550000000     0.836750000000    -0.282352   
C33      C      0.285350000000     0.326300000000     0.870500000000     0.320353   
C34      C      0.289500000000     0.283450000000     0.879550000000    -0.295885   
C35      C      0.282500000000     0.267050000000     0.854750000000     0.166908   
C36      C      0.325650000000     0.327250000000     0.910750000000     0.313282   
C37      C      0.319200000000     0.348850000000     0.936950000000    -0.273933   
C38      C      0.355400000000     0.334950000000     0.954150000000     0.157023   
C39      C      0.399150000000     0.299400000000     0.943700000000    -0.195256   
C40      C      0.405300000000     0.279000000000     0.916200000000     0.171556   
C41      C      0.368800000000     0.293300000000     0.899400000000    -0.290297   
C42      C      0.438050000000     0.283100000000     0.963700000000     0.427366   
C43      C      0.395100000000     0.205400000000     0.695900000000    -0.223303   
C44      C      0.426200000000     0.168550000000     0.715150000000     0.171552   
C45      C      0.475500000000     0.151000000000     0.697500000000    -0.281946   
C46      C      0.495150000000     0.170150000000     0.658750000000     0.31351    
C47      C      0.465350000000     0.207450000000     0.639950000000    -0.285272   
C48      C      0.415550000000     0.224300000000     0.658300000000     0.179003   
C49      C      0.079800000000     0.128850000000     0.656250000000     0.301088   
C50      C      0.081400000000     0.141250000000     0.685950000000    -0.287122   
C51      C      0.119100000000     0.115500000000     0.701600000000     0.174263   
C52      C      0.156700000000     0.078350000000     0.687650000000    -0.223864   
C53      C      0.155650000000     0.067900000000     0.657400000000     0.1729     
C54      C      0.116700000000     0.092450000000     0.641550000000    -0.270897   
C55      C      0.194950000000     0.049750000000     0.707750000000     0.439026   
C56      C      0.341100000000     0.222850000000     0.715350000000     0.436296   
C57      C      0.163600000000     0.027600000000     0.545100000000     0.452055   
C58      C      0.112550000000     0.044400000000     0.570600000000    -0.228756   
C59      C      0.080700000000     0.087850000000     0.561950000000     0.174561   
C60      C      0.034050000000     0.103550000000     0.586750000000    -0.282347   
C61      C      0.017850000000     0.076300000000     0.620500000000     0.320354   
C62      C      0.047500000000     0.033450000000     0.629550000000    -0.29588    
C63      C      0.095700000000     0.017050000000     0.604750000000     0.166903   
C64      C      0.436350000000     0.077250000000     0.660750000000     0.31328    
C65      C      0.395000000000     0.098850000000     0.686950000000    -0.27393    
C66      C      0.355500000000     0.084950000000     0.704150000000     0.157021   
C67      C      0.357750000000     0.049400000000     0.693700000000    -0.195253   
C68      C      0.399500000000     0.029000000000     0.666200000000     0.171553   
C69      C      0.438500000000     0.043300000000     0.649400000000    -0.290293   
C70      C      0.315150000000     0.033100000000     0.713700000000     0.427365   
C71      C      0.203600000000     0.455400000000     0.945900000000    -0.223309   
C72      C      0.190100000000     0.418550000000     0.965150000000     0.171558   
C73      C      0.176000000000     0.401000000000     0.947500000000    -0.281952   
C74      C      0.175950000000     0.420150000000     0.908750000000     0.313515   
C75      C      0.187250000000     0.457450000000     0.889950000000    -0.285277   
C76      C      0.201850000000     0.474300000000     0.908300000000     0.179009   
C77      C      0.135100000000     0.378850000000     0.906250000000     0.301082   
C78      C      0.091400000000     0.391250000000     0.935950000000    -0.287116   
C79      C      0.063800000000     0.365500000000     0.951600000000     0.174256   
C80      C      0.077300000000     0.328350000000     0.937650000000    -0.22386    
C81      C      0.119050000000     0.317900000000     0.907400000000     0.172894   
C82      C      0.149300000000     0.342450000000     0.891550000000    -0.270893   
C83      C      0.047550000000     0.299750000000     0.957750000000     0.43902    
C84      C      0.220700000000     0.472850000000     0.965350000000     0.4363     
C85      C      0.236300000000     0.222400000000     0.704900000000     0.45206    
C86      C      0.227550000000     0.205600000000     0.679400000000    -0.228761   
C87      C      0.230500000000     0.162150000000     0.688050000000     0.174565   
C88      C      0.224350000000     0.146450000000     0.663250000000    -0.282351   
C89      C      0.214650000000     0.173700000000     0.629500000000     0.320353   
C90      C      0.210500000000     0.216550000000     0.620450000000    -0.295884   
C91      C      0.217500000000     0.232950000000     0.645250000000     0.166909   
C92      C      0.174350000000     0.172750000000     0.589250000000     0.313282   
C93      C      0.180800000000     0.151150000000     0.563050000000    -0.273931   
C94      C      0.144600000000     0.165050000000     0.545850000000     0.157021   
C95      C      0.100850000000     0.200600000000     0.556300000000    -0.195253   
C96      C      0.094700000000     0.221000000000     0.583800000000     0.171554   
C97      C      0.131200000000     0.206700000000     0.600600000000    -0.290295   
C98      C      0.061950000000     0.216900000000     0.536300000000     0.427365   
C99      C      0.104900000000     0.294600000000     0.804100000000    -0.223304   
C100     C      0.073800000000     0.331450000000     0.784850000000     0.171556   
C101     C      0.024500000000     0.349000000000     0.802500000000    -0.281948   
C102     C      0.004850000000     0.329850000000     0.841250000000     0.313517   
C103     C      0.034650000000     0.292550000000     0.860050000000    -0.285274   
C104     C      0.084450000000     0.275700000000     0.841700000000     0.179006   
C105     C      0.420200000000     0.371150000000     0.843750000000     0.301084   
C106     C      0.418600000000     0.358750000000     0.814050000000    -0.287119   
C107     C      0.380900000000     0.384500000000     0.798400000000     0.17426    
C108     C      0.343300000000     0.421650000000     0.812350000000    -0.223863   
C109     C      0.344350000000     0.432100000000     0.842600000000     0.172898   
C110     C      0.383300000000     0.407550000000     0.858450000000    -0.270895   
C111     C      0.305050000000     0.450250000000     0.792250000000     0.439025   
C112     C      0.158900000000     0.277150000000     0.784650000000     0.436297   
O1       O      0.323600000000     0.447100000000     0.986300000000    -0.454038   
O2       O      0.309555000000     0.011240000000     0.943850000000    -0.451136   
O3       O      0.028050000000     0.404100000000     0.855300000000    -0.314452   
O4       O      0.182050000000     0.496600000000     0.799200000000    -0.448853   
O5       O      0.218850000000     0.449150000000     0.758650000000    -0.439367   
O6       O      0.279350000000     0.488200000000     0.549000000000    -0.442313   
O7       O      0.334700000000     0.096550000000     0.612250000000    -0.308841   
O8       O      0.489850000000     0.187900000000     0.514000000000    -0.453111   
O9       O      0.438050000000     0.234700000000     0.554300000000    -0.445107   
O10      O      0.266300000000     0.052550000000     0.505350000000    -0.451176   
O11      O      0.257000000000     0.302900000000     0.763700000000    -0.454036   
O12      O      0.264645000000     0.238760000000     0.806150000000    -0.451138   
O13      O      0.287450000000     0.345900000000     0.894700000000    -0.314449   
O14      O      0.477850000000     0.253400000000     0.950800000000    -0.448854   
O15      O      0.426650000000     0.300850000000     0.991350000000    -0.43937    
O16      O      0.316550000000     0.261800000000     0.701000000000    -0.442311   
O17      O      0.043500000000     0.153450000000     0.637750000000    -0.308845   
O18      O      0.191750000000     0.062100000000     0.736000000000    -0.453111   
O19      O      0.227050000000     0.015300000000     0.695700000000    -0.445108   
O20      O      0.324200000000     0.197450000000     0.744650000000    -0.451174   
O21      O      0.176400000000     0.052900000000     0.513700000000    -0.454033   
O22      O      0.190445000000     0.488760000000     0.556150000000    -0.451136   
O23      O      0.471950000000     0.095900000000     0.644700000000    -0.314447   
O24      O      0.317950000000     0.003400000000     0.700800000000    -0.448854   
O25      O      0.281150000000     0.050850000000     0.741350000000    -0.439367   
O26      O      0.220650000000     0.011800000000     0.951000000000    -0.442313   
O27      O      0.165300000000     0.403450000000     0.887750000000    -0.308841   
O28      O      0.010150000000     0.312100000000     0.986000000000    -0.453107   
O29      O      0.061950000000     0.265300000000     0.945700000000    -0.445106   
O30      O      0.233700000000     0.447450000000     0.994650000000    -0.451181   
O31      O      0.243000000000     0.197100000000     0.736300000000    -0.454036   
O32      O      0.235355000000     0.261240000000     0.693850000000    -0.451138   
O33      O      0.212550000000     0.154100000000     0.605300000000    -0.314449   
O34      O      0.022150000000     0.246600000000     0.549200000000    -0.44885    
O35      O      0.073350000000     0.199150000000     0.508650000000    -0.439369   
O36      O      0.183450000000     0.238200000000     0.799000000000    -0.442311   
O37      O      0.456500000000     0.346550000000     0.862250000000    -0.30884    
O38      O      0.308250000000     0.437900000000     0.764000000000    -0.453112   
O39      O      0.272950000000     0.484700000000     0.804300000000    -0.445107   
O40      O      0.175800000000     0.302550000000     0.755350000000    -0.451174   
Cu1      Cu     0.258350000000     0.962140000000     0.024890000000     0.9741     
Cu2      Cu     0.228400000000     0.527880000000     0.273780000000     0.963745   
Cu3      Cu     0.245380000000     0.787860000000     0.225110000000     0.974091   
Cu4      Cu     0.030060000000     0.722120000000     0.476220000000     0.963755   
Cu5      Cu     0.241650000000     0.537860000000     0.475110000000     0.97409    
Cu6      Cu     0.271600000000     0.972120000000     0.226220000000     0.963744   
Cu7      Cu     0.254620000000     0.712140000000     0.274890000000     0.97409    
Cu8      Cu     0.469940000000     0.777880000000     0.023780000000     0.963742   
H1       H      0.408650000000     0.893050000000     0.461450000000    -0.00618846 
H2       H      0.487050000000     0.866650000000     0.419450000000     0.151395   
H3       H      0.464250000000     0.985400000000     0.347400000000     0.134278   
H4       H      0.383350000000     0.512650000000     0.388650000000    -0.011339   
H5       H      0.106800000000     0.876450000000     0.306550000000     0.144493   
H6       H      0.172850000000     0.900550000000     0.277050000000    -0.00321165 
H7       H      0.098650000000     0.995050000000     0.341250000000    -0.0122852  
H8       H      0.033250000000     0.970500000000     0.369900000000     0.132149   
H9       H      0.309250000000     0.594550000000     0.008850000000    -0.0142168  
H10      H      0.333600000000     0.623700000000     0.038900000000     0.133425   
H11      H      0.314850000000     0.528600000000     0.135600000000     0.152201   
H12      H      0.289200000000     0.500500000000     0.105200000000    -0.0143108  
H13      H      0.419000000000     0.582850000000     0.054850000000     0.131364   
H14      H      0.465350000000     0.627000000000     0.027400000000    -0.0132025  
H15      H      0.372300000000     0.706400000000     0.103200000000    -0.00861041 
H16      H      0.321000000000     0.665800000000     0.128900000000     0.142731   
H17      H      0.263150000000     0.856950000000     0.288550000000    -0.00619046 
H18      H      0.273150000000     0.883350000000     0.330550000000     0.151397   
H19      H      0.297050000000     0.764600000000     0.402600000000     0.134281   
H20      H      0.284650000000     0.737350000000     0.361350000000    -0.011341   
H21      H      0.289800000000     0.873550000000     0.443450000000     0.144493   
H22      H      0.350450000000     0.849450000000     0.472950000000    -0.00321233 
H23      H      0.434950000000     0.754950000000     0.408750000000    -0.0122885  
H24      H      0.373650000000     0.779500000000     0.380100000000     0.132143   
H25      H      0.412650000000     0.655450000000     0.241150000000    -0.0142143  
H26      H      0.496200000000     0.626300000000     0.211100000000     0.133424   
H27      H      0.479050000000     0.721400000000     0.114400000000     0.152199   
H28      H      0.394900000000     0.749500000000     0.144800000000    -0.0143089  
H29      H      0.056700000000     0.667150000000     0.195150000000     0.131371   
H30      H      0.119750000000     0.623000000000     0.222600000000    -0.0132001  
H31      H      0.181900000000     0.543600000000     0.146800000000    -0.0086112  
H32      H      0.115700000000     0.584200000000     0.121100000000     0.142732   
H33      H      0.091350000000     0.606950000000     0.038550000000    -0.00619014 
H34      H      0.012950000000     0.633350000000     0.080550000000     0.151407   
H35      H      0.035750000000     0.514600000000     0.152600000000     0.134289   
H36      H      0.116650000000     0.987350000000     0.111350000000    -0.0113388  
H37      H      0.393200000000     0.623550000000     0.193450000000     0.144492   
H38      H      0.327150000000     0.599450000000     0.222950000000    -0.0032116  
H39      H      0.401350000000     0.504950000000     0.158750000000    -0.0122879  
H40      H      0.466750000000     0.529500000000     0.130100000000     0.132142   
H41      H      0.190750000000     0.905450000000     0.491150000000    -0.0142152  
H42      H      0.166400000000     0.876300000000     0.461100000000     0.133426   
H43      H      0.185150000000     0.971400000000     0.364400000000     0.152201   
H44      H      0.210800000000     0.999500000000     0.394800000000    -0.0143101  
H45      H      0.081000000000     0.917150000000     0.445150000000     0.131368   
H46      H      0.034650000000     0.873000000000     0.472600000000    -0.0131953  
H47      H      0.127700000000     0.793600000000     0.396800000000    -0.00860982 
H48      H      0.179000000000     0.834200000000     0.371100000000     0.142731   
H49      H      0.236850000000     0.643050000000     0.211450000000    -0.00619003 
H50      H      0.226850000000     0.616650000000     0.169450000000     0.151397   
H51      H      0.202950000000     0.735400000000     0.097400000000     0.134281   
H52      H      0.215350000000     0.762650000000     0.138650000000    -0.0113399  
H53      H      0.210200000000     0.626450000000     0.056550000000     0.144492   
H54      H      0.149550000000     0.650550000000     0.027050000000    -0.00321116 
H55      H      0.065050000000     0.745050000000     0.091250000000    -0.0122824  
H56      H      0.126350000000     0.720500000000     0.119900000000     0.132145   
H57      H      0.087350000000     0.844550000000     0.258850000000    -0.0142149  
H58      H      0.003800000000     0.873700000000     0.288900000000     0.133437   
H59      H      0.020950000000     0.778600000000     0.385600000000     0.152207   
H60      H      0.105100000000     0.750500000000     0.355200000000    -0.0143112  
H61      H      0.443300000000     0.832850000000     0.304850000000     0.131366   
H62      H      0.380250000000     0.877000000000     0.277400000000    -0.0132021  
H63      H      0.318100000000     0.956400000000     0.353200000000    -0.00861114 
H64      H      0.384300000000     0.915800000000     0.378900000000     0.142732   
C1       C      0.336400000000     0.972400000000     0.454900000000     0.452057   
C2       C      0.387450000000     0.955600000000     0.429400000000    -0.228757   
C3       C      0.419300000000     0.912150000000     0.438050000000     0.174559   
C4       C      0.465950000000     0.896450000000     0.413250000000    -0.282345   
C5       C      0.482150000000     0.923700000000     0.379500000000     0.320348   
C6       C      0.452500000000     0.966550000000     0.370450000000    -0.295879   
C7       C      0.404300000000     0.982950000000     0.395250000000     0.166903   
C8       C      0.063650000000     0.922750000000     0.339250000000     0.313283   
C9       C      0.105000000000     0.901150000000     0.313050000000    -0.27393    
C10      C      0.144500000000     0.915050000000     0.295850000000     0.157022   
C11      C      0.142250000000     0.950600000000     0.306300000000    -0.195253   
C12      C      0.100500000000     0.971000000000     0.333800000000     0.171555   
C13      C      0.061500000000     0.956700000000     0.350600000000    -0.290293   
C14      C      0.184850000000     0.966900000000     0.286300000000     0.427366   
C15      C      0.296400000000     0.544600000000     0.054100000000    -0.223308   
C16      C      0.309900000000     0.581450000000     0.034850000000     0.171557   
C17      C      0.324000000000     0.599000000000     0.052500000000    -0.281952   
C18      C      0.324050000000     0.579850000000     0.091250000000     0.313515   
C19      C      0.312750000000     0.542550000000     0.110050000000    -0.285277   
C20      C      0.298150000000     0.525700000000     0.091700000000     0.179008   
C21      C      0.364900000000     0.621150000000     0.093750000000     0.301083   
C22      C      0.408600000000     0.608750000000     0.064050000000    -0.287117   
C23      C      0.436200000000     0.634500000000     0.048400000000     0.174258   
C24      C      0.422700000000     0.671650000000     0.062350000000    -0.223861   
C25      C      0.380950000000     0.682100000000     0.092600000000     0.172895   
C26      C      0.350700000000     0.657550000000     0.108450000000    -0.270893   
C27      C      0.452450000000     0.700250000000     0.042250000000     0.439024   
C28      C      0.279300000000     0.527150000000     0.034650000000     0.436299   
C29      C      0.263700000000     0.777600000000     0.295100000000     0.45206    
C30      C      0.272450000000     0.794400000000     0.320600000000    -0.228762   
C31      C      0.269500000000     0.837850000000     0.311950000000     0.174565   
C32      C      0.275650000000     0.853550000000     0.336750000000    -0.282352   
C33      C      0.285350000000     0.826300000000     0.370500000000     0.320353   
C34      C      0.289500000000     0.783450000000     0.379550000000    -0.295885   
C35      C      0.282500000000     0.767050000000     0.354750000000     0.166908   
C36      C      0.325650000000     0.827250000000     0.410750000000     0.313282   
C37      C      0.319200000000     0.848850000000     0.436950000000    -0.273932   
C38      C      0.355400000000     0.834950000000     0.454150000000     0.157022   
C39      C      0.399150000000     0.799400000000     0.443700000000    -0.195255   
C40      C      0.405300000000     0.779000000000     0.416200000000     0.171555   
C41      C      0.368800000000     0.793300000000     0.399400000000    -0.290296   
C42      C      0.438050000000     0.783100000000     0.463700000000     0.427366   
C43      C      0.395100000000     0.705400000000     0.195900000000    -0.223303   
C44      C      0.426200000000     0.668550000000     0.215150000000     0.171552   
C45      C      0.475500000000     0.651000000000     0.197500000000    -0.281946   
C46      C      0.495150000000     0.670150000000     0.158750000000     0.31351    
C47      C      0.465350000000     0.707450000000     0.139950000000    -0.285272   
C48      C      0.415550000000     0.724300000000     0.158300000000     0.179003   
C49      C      0.079800000000     0.628850000000     0.156250000000     0.301086   
C50      C      0.081400000000     0.641250000000     0.185950000000    -0.287119   
C51      C      0.119100000000     0.615500000000     0.201600000000     0.174262   
C52      C      0.156700000000     0.578350000000     0.187650000000    -0.223863   
C53      C      0.155650000000     0.567900000000     0.157400000000     0.172899   
C54      C      0.116700000000     0.592450000000     0.141550000000    -0.270895   
C55      C      0.194950000000     0.549750000000     0.207750000000     0.439025   
C56      C      0.341100000000     0.722850000000     0.215350000000     0.436296   
C57      C      0.163600000000     0.527600000000     0.045100000000     0.452059   
C58      C      0.112550000000     0.544400000000     0.070600000000    -0.228762   
C59      C      0.080700000000     0.587850000000     0.061950000000     0.17457    
C60      C      0.034050000000     0.603550000000     0.086750000000    -0.282357   
C61      C      0.017850000000     0.576300000000     0.120500000000     0.320372   
C62      C      0.047500000000     0.533450000000     0.129550000000    -0.29589    
C63      C      0.095700000000     0.517050000000     0.104750000000     0.166913   
C64      C      0.436350000000     0.577250000000     0.160750000000     0.31328    
C65      C      0.395000000000     0.598850000000     0.186950000000    -0.27393    
C66      C      0.355500000000     0.584950000000     0.204150000000     0.15702    
C67      C      0.357750000000     0.549400000000     0.193700000000    -0.195253   
C68      C      0.399500000000     0.529000000000     0.166200000000     0.171553   
C69      C      0.438500000000     0.543300000000     0.149400000000    -0.290293   
C70      C      0.315150000000     0.533100000000     0.213700000000     0.427365   
C71      C      0.203600000000     0.955400000000     0.445900000000    -0.223307   
C72      C      0.190100000000     0.918550000000     0.465150000000     0.171558   
C73      C      0.176000000000     0.901000000000     0.447500000000    -0.281951   
C74      C      0.175950000000     0.920150000000     0.408750000000     0.313515   
C75      C      0.187250000000     0.957450000000     0.389950000000    -0.285277   
C76      C      0.201850000000     0.974300000000     0.408300000000     0.179009   
C77      C      0.135100000000     0.878850000000     0.406250000000     0.301082   
C78      C      0.091400000000     0.891250000000     0.435950000000    -0.287115   
C79      C      0.063800000000     0.865500000000     0.451600000000     0.174257   
C80      C      0.077300000000     0.828350000000     0.437650000000    -0.223858   
C81      C      0.119050000000     0.817900000000     0.407400000000     0.172894   
C82      C      0.149300000000     0.842450000000     0.391550000000    -0.270892   
C83      C      0.047550000000     0.799750000000     0.457750000000     0.439023   
C84      C      0.220700000000     0.972850000000     0.465350000000     0.4363     
C85      C      0.236300000000     0.722400000000     0.204900000000     0.45206    
C86      C      0.227550000000     0.705600000000     0.179400000000    -0.228761   
C87      C      0.230500000000     0.662150000000     0.188050000000     0.174565   
C88      C      0.224350000000     0.646450000000     0.163250000000    -0.282351   
C89      C      0.214650000000     0.673700000000     0.129500000000     0.320353   
C90      C      0.210500000000     0.716550000000     0.120450000000    -0.295884   
C91      C      0.217500000000     0.732950000000     0.145250000000     0.166909   
C92      C      0.174350000000     0.672750000000     0.089250000000     0.313281   
C93      C      0.180800000000     0.651150000000     0.063050000000    -0.27393    
C94      C      0.144600000000     0.665050000000     0.045850000000     0.15702    
C95      C      0.100850000000     0.700600000000     0.056300000000    -0.19525    
C96      C      0.094700000000     0.721000000000     0.083800000000     0.171553   
C97      C      0.131200000000     0.706700000000     0.100600000000    -0.290293   
C98      C      0.061950000000     0.716900000000     0.036300000000     0.427363   
C99      C      0.104900000000     0.794600000000     0.304100000000    -0.223308   
C100     C      0.073800000000     0.831450000000     0.284850000000     0.171563   
C101     C      0.024500000000     0.849000000000     0.302500000000    -0.281957   
C102     C      0.004850000000     0.829850000000     0.341250000000     0.313533   
C103     C      0.034650000000     0.792550000000     0.360050000000    -0.285283   
C104     C      0.084450000000     0.775700000000     0.341700000000     0.179013   
C105     C      0.420200000000     0.871150000000     0.343750000000     0.301084   
C106     C      0.418600000000     0.858750000000     0.314050000000    -0.287119   
C107     C      0.380900000000     0.884500000000     0.298400000000     0.17426    
C108     C      0.343300000000     0.921650000000     0.312350000000    -0.223863   
C109     C      0.344350000000     0.932100000000     0.342600000000     0.172898   
C110     C      0.383300000000     0.907550000000     0.358450000000    -0.270895   
C111     C      0.305050000000     0.950250000000     0.292250000000     0.439025   
C112     C      0.158900000000     0.777150000000     0.284650000000     0.436299   
O1       O      0.323600000000     0.947100000000     0.486300000000    -0.454034   
O2       O      0.309555000000     0.511240000000     0.443850000000    -0.451136   
O3       O      0.028050000000     0.904100000000     0.355300000000    -0.314442   
O4       O      0.182050000000     0.996600000000     0.299200000000    -0.448852   
O5       O      0.218850000000     0.949150000000     0.258650000000    -0.439367   
O6       O      0.279350000000     0.988200000000     0.049000000000    -0.442314   
O7       O      0.334700000000     0.596550000000     0.112250000000    -0.308841   
O8       O      0.489850000000     0.687900000000     0.014000000000    -0.453112   
O9       O      0.438050000000     0.734700000000     0.054300000000    -0.445106   
O10      O      0.266300000000     0.552550000000     0.005350000000    -0.451174   
O11      O      0.257000000000     0.802900000000     0.263700000000    -0.454036   
O12      O      0.264645000000     0.738760000000     0.306150000000    -0.451138   
O13      O      0.287450000000     0.845900000000     0.394700000000    -0.314449   
O14      O      0.477850000000     0.753400000000     0.450800000000    -0.448854   
O15      O      0.426650000000     0.800850000000     0.491350000000    -0.439368   
O16      O      0.316550000000     0.761800000000     0.201000000000    -0.442311   
O17      O      0.043500000000     0.653450000000     0.137750000000    -0.308836   
O18      O      0.191750000000     0.562100000000     0.236000000000    -0.453111   
O19      O      0.227050000000     0.515300000000     0.195700000000    -0.445107   
O20      O      0.324200000000     0.697450000000     0.244650000000    -0.451174   
O21      O      0.176400000000     0.552900000000     0.013700000000    -0.45403    
O22      O      0.190445000000     0.988760000000     0.056150000000    -0.451136   
O23      O      0.471950000000     0.595900000000     0.144700000000    -0.314447   
O24      O      0.317950000000     0.503400000000     0.200800000000    -0.448854   
O25      O      0.281150000000     0.550850000000     0.241350000000    -0.439367   
O26      O      0.220650000000     0.511800000000     0.451000000000    -0.442312   
O27      O      0.165300000000     0.903450000000     0.387750000000    -0.308841   
O28      O      0.010150000000     0.812100000000     0.486000000000    -0.453103   
O29      O      0.061950000000     0.765300000000     0.445700000000    -0.445107   
O30      O      0.233700000000     0.947450000000     0.494650000000    -0.451176   
O31      O      0.243000000000     0.697100000000     0.236300000000    -0.454035   
O32      O      0.235355000000     0.761240000000     0.193850000000    -0.451138   
O33      O      0.212550000000     0.654100000000     0.105300000000    -0.314448   
O34      O      0.022150000000     0.746600000000     0.049200000000    -0.448839   
O35      O      0.073350000000     0.699150000000     0.008650000000    -0.439361   
O36      O      0.183450000000     0.738200000000     0.299000000000    -0.442311   
O37      O      0.456500000000     0.846550000000     0.362250000000    -0.30884    
O38      O      0.308250000000     0.937900000000     0.264000000000    -0.453112   
O39      O      0.272950000000     0.984700000000     0.304300000000    -0.445107   
O40      O      0.175800000000     0.802550000000     0.255350000000    -0.451174   
Cu1      Cu     0.258350000000     0.962140000000     0.524890000000     0.974091   
Cu2      Cu     0.228400000000     0.527880000000     0.773780000000     0.963744   
Cu3      Cu     0.245380000000     0.787860000000     0.725110000000     0.974091   
Cu4      Cu     0.030060000000     0.722120000000     0.976220000000     0.963737   
Cu5      Cu     0.241650000000     0.537860000000     0.975110000000     0.974075   
Cu6      Cu     0.271600000000     0.972120000000     0.726220000000     0.963745   
Cu7      Cu     0.254620000000     0.712140000000     0.774890000000     0.97409    
Cu8      Cu     0.469940000000     0.777880000000     0.523780000000     0.963743   
H1       H      0.408650000000     0.893050000000     0.961450000000    -0.00618952 
H2       H      0.487050000000     0.866650000000     0.919450000000     0.151396   
H3       H      0.464250000000     0.985400000000     0.847400000000     0.134279   
H4       H      0.383350000000     0.512650000000     0.888650000000    -0.0113394  
H5       H      0.106800000000     0.876450000000     0.806550000000     0.144493   
H6       H      0.172850000000     0.900550000000     0.777050000000    -0.00321202 
H7       H      0.098650000000     0.995050000000     0.841250000000    -0.0122864  
H8       H      0.033250000000     0.970500000000     0.869900000000     0.132147   
H9       H      0.309250000000     0.594550000000     0.508850000000    -0.0142161  
H10      H      0.333600000000     0.623700000000     0.538900000000     0.133426   
H11      H      0.314850000000     0.528600000000     0.635600000000     0.152201   
H12      H      0.289200000000     0.500500000000     0.605200000000    -0.0143108  
H13      H      0.419000000000     0.582850000000     0.554850000000     0.131365   
H14      H      0.465350000000     0.627000000000     0.527400000000    -0.0132014  
H15      H      0.372300000000     0.706400000000     0.603200000000    -0.00861037 
H16      H      0.321000000000     0.665800000000     0.628900000000     0.142731   
H17      H      0.263150000000     0.856950000000     0.788550000000    -0.0061904  
H18      H      0.273150000000     0.883350000000     0.830550000000     0.151397   
H19      H      0.297050000000     0.764600000000     0.902600000000     0.13428    
H20      H      0.284650000000     0.737350000000     0.861350000000    -0.0113414  
H21      H      0.289800000000     0.873550000000     0.943450000000     0.144493   
H22      H      0.350450000000     0.849450000000     0.972950000000    -0.00321366 
H23      H      0.434950000000     0.754950000000     0.908750000000    -0.0122889  
H24      H      0.373650000000     0.779500000000     0.880100000000     0.132143   
H25      H      0.412650000000     0.655450000000     0.741150000000    -0.0142144  
H26      H      0.496200000000     0.626300000000     0.711100000000     0.133424   
H27      H      0.479050000000     0.721400000000     0.614400000000     0.152199   
H28      H      0.394900000000     0.749500000000     0.644800000000    -0.014309   
H29      H      0.056700000000     0.667150000000     0.695150000000     0.13137    
H30      H      0.119750000000     0.623000000000     0.722600000000    -0.0132011  
H31      H      0.181900000000     0.543600000000     0.646800000000    -0.0086116  
H32      H      0.115700000000     0.584200000000     0.621100000000     0.142733   
H33      H      0.091350000000     0.606950000000     0.538550000000    -0.00618898 
H34      H      0.012950000000     0.633350000000     0.580550000000     0.151401   
H35      H      0.035750000000     0.514600000000     0.652600000000     0.134284   
H36      H      0.116650000000     0.987350000000     0.611350000000    -0.0113371  
H37      H      0.393200000000     0.623550000000     0.693450000000     0.144492   
H38      H      0.327150000000     0.599450000000     0.722950000000    -0.00321163 
H39      H      0.401350000000     0.504950000000     0.658750000000    -0.0122878  
H40      H      0.466750000000     0.529500000000     0.630100000000     0.132142   
H41      H      0.190750000000     0.905450000000     0.991150000000    -0.0142181  
H42      H      0.166400000000     0.876300000000     0.961100000000     0.133425   
H43      H      0.185150000000     0.971400000000     0.864400000000     0.152201   
H44      H      0.210800000000     0.999500000000     0.894800000000    -0.0143106  
H45      H      0.081000000000     0.917150000000     0.945150000000     0.131366   
H46      H      0.034650000000     0.873000000000     0.972600000000    -0.0131985  
H47      H      0.127700000000     0.793600000000     0.896800000000    -0.00861037 
H48      H      0.179000000000     0.834200000000     0.871100000000     0.142731   
H49      H      0.236850000000     0.643050000000     0.711450000000    -0.00619016 
H50      H      0.226850000000     0.616650000000     0.669450000000     0.151397   
H51      H      0.202950000000     0.735400000000     0.597400000000     0.134281   
H52      H      0.215350000000     0.762650000000     0.638650000000    -0.0113403  
H53      H      0.210200000000     0.626450000000     0.556550000000     0.144493   
H54      H      0.149550000000     0.650550000000     0.527050000000    -0.00321192 
H55      H      0.065050000000     0.745050000000     0.591250000000    -0.0122846  
H56      H      0.126350000000     0.720500000000     0.619900000000     0.132145   
H57      H      0.087350000000     0.844550000000     0.758850000000    -0.0142136  
H58      H      0.003800000000     0.873700000000     0.788900000000     0.133431   
H59      H      0.020950000000     0.778600000000     0.885600000000     0.152202   
H60      H      0.105100000000     0.750500000000     0.855200000000    -0.0143096  
H61      H      0.443300000000     0.832850000000     0.804850000000     0.131366   
H62      H      0.380250000000     0.877000000000     0.777400000000    -0.0132021  
H63      H      0.318100000000     0.956400000000     0.853200000000    -0.00861106 
H64      H      0.384300000000     0.915800000000     0.878900000000     0.142732   
C1       C      0.336400000000     0.972400000000     0.954900000000     0.452058   
C2       C      0.387450000000     0.955600000000     0.929400000000    -0.228758   
C3       C      0.419300000000     0.912150000000     0.938050000000     0.17456    
C4       C      0.465950000000     0.896450000000     0.913250000000    -0.282346   
C5       C      0.482150000000     0.923700000000     0.879500000000     0.320348   
C6       C      0.452500000000     0.966550000000     0.870450000000    -0.29588    
C7       C      0.404300000000     0.982950000000     0.895250000000     0.166904   
C8       C      0.063650000000     0.922750000000     0.839250000000     0.313285   
C9       C      0.105000000000     0.901150000000     0.813050000000    -0.273932   
C10      C      0.144500000000     0.915050000000     0.795850000000     0.157023   
C11      C      0.142250000000     0.950600000000     0.806300000000    -0.195254   
C12      C      0.100500000000     0.971000000000     0.833800000000     0.171556   
C13      C      0.061500000000     0.956700000000     0.850600000000    -0.290296   
C14      C      0.184850000000     0.966900000000     0.786300000000     0.427366   
C15      C      0.296400000000     0.544600000000     0.554100000000    -0.223308   
C16      C      0.309900000000     0.581450000000     0.534850000000     0.171558   
C17      C      0.324000000000     0.599000000000     0.552500000000    -0.281952   
C18      C      0.324050000000     0.579850000000     0.591250000000     0.313515   
C19      C      0.312750000000     0.542550000000     0.610050000000    -0.285277   
C20      C      0.298150000000     0.525700000000     0.591700000000     0.179008   
C21      C      0.364900000000     0.621150000000     0.593750000000     0.301083   
C22      C      0.408600000000     0.608750000000     0.564050000000    -0.287117   
C23      C      0.436200000000     0.634500000000     0.548400000000     0.174258   
C24      C      0.422700000000     0.671650000000     0.562350000000    -0.223861   
C25      C      0.380950000000     0.682100000000     0.592600000000     0.172895   
C26      C      0.350700000000     0.657550000000     0.608450000000    -0.270893   
C27      C      0.452450000000     0.700250000000     0.542250000000     0.439023   
C28      C      0.279300000000     0.527150000000     0.534650000000     0.436299   
C29      C      0.263700000000     0.777600000000     0.795100000000     0.45206    
C30      C      0.272450000000     0.794400000000     0.820600000000    -0.228762   
C31      C      0.269500000000     0.837850000000     0.811950000000     0.174565   
C32      C      0.275650000000     0.853550000000     0.836750000000    -0.282352   
C33      C      0.285350000000     0.826300000000     0.870500000000     0.320353   
C34      C      0.289500000000     0.783450000000     0.879550000000    -0.295885   
C35      C      0.282500000000     0.767050000000     0.854750000000     0.166908   
C36      C      0.325650000000     0.827250000000     0.910750000000     0.313282   
C37      C      0.319200000000     0.848850000000     0.936950000000    -0.273933   
C38      C      0.355400000000     0.834950000000     0.954150000000     0.157023   
C39      C      0.399150000000     0.799400000000     0.943700000000    -0.195256   
C40      C      0.405300000000     0.779000000000     0.916200000000     0.171556   
C41      C      0.368800000000     0.793300000000     0.899400000000    -0.290297   
C42      C      0.438050000000     0.783100000000     0.963700000000     0.427366   
C43      C      0.395100000000     0.705400000000     0.695900000000    -0.223303   
C44      C      0.426200000000     0.668550000000     0.715150000000     0.171552   
C45      C      0.475500000000     0.651000000000     0.697500000000    -0.281946   
C46      C      0.495150000000     0.670150000000     0.658750000000     0.31351    
C47      C      0.465350000000     0.707450000000     0.639950000000    -0.285272   
C48      C      0.415550000000     0.724300000000     0.658300000000     0.179003   
C49      C      0.079800000000     0.628850000000     0.656250000000     0.301088   
C50      C      0.081400000000     0.641250000000     0.685950000000    -0.287121   
C51      C      0.119100000000     0.615500000000     0.701600000000     0.174263   
C52      C      0.156700000000     0.578350000000     0.687650000000    -0.223864   
C53      C      0.155650000000     0.567900000000     0.657400000000     0.172899   
C54      C      0.116700000000     0.592450000000     0.641550000000    -0.270897   
C55      C      0.194950000000     0.549750000000     0.707750000000     0.439026   
C56      C      0.341100000000     0.722850000000     0.715350000000     0.436296   
C57      C      0.163600000000     0.527600000000     0.545100000000     0.452057   
C58      C      0.112550000000     0.544400000000     0.570600000000    -0.228758   
C59      C      0.080700000000     0.587850000000     0.561950000000     0.174563   
C60      C      0.034050000000     0.603550000000     0.586750000000    -0.282349   
C61      C      0.017850000000     0.576300000000     0.620500000000     0.320357   
C62      C      0.047500000000     0.533450000000     0.629550000000    -0.295882   
C63      C      0.095700000000     0.517050000000     0.604750000000     0.166907   
C64      C      0.436350000000     0.577250000000     0.660750000000     0.31328    
C65      C      0.395000000000     0.598850000000     0.686950000000    -0.27393    
C66      C      0.355500000000     0.584950000000     0.704150000000     0.15702    
C67      C      0.357750000000     0.549400000000     0.693700000000    -0.195253   
C68      C      0.399500000000     0.529000000000     0.666200000000     0.171553   
C69      C      0.438500000000     0.543300000000     0.649400000000    -0.290293   
C70      C      0.315150000000     0.533100000000     0.713700000000     0.427365   
C71      C      0.203600000000     0.955400000000     0.945900000000    -0.223309   
C72      C      0.190100000000     0.918550000000     0.965150000000     0.171559   
C73      C      0.176000000000     0.901000000000     0.947500000000    -0.281952   
C74      C      0.175950000000     0.920150000000     0.908750000000     0.313515   
C75      C      0.187250000000     0.957450000000     0.889950000000    -0.285277   
C76      C      0.201850000000     0.974300000000     0.908300000000     0.17901    
C77      C      0.135100000000     0.878850000000     0.906250000000     0.301082   
C78      C      0.091400000000     0.891250000000     0.935950000000    -0.287116   
C79      C      0.063800000000     0.865500000000     0.951600000000     0.174256   
C80      C      0.077300000000     0.828350000000     0.937650000000    -0.22386    
C81      C      0.119050000000     0.817900000000     0.907400000000     0.172894   
C82      C      0.149300000000     0.842450000000     0.891550000000    -0.270893   
C83      C      0.047550000000     0.799750000000     0.957750000000     0.43902    
C84      C      0.220700000000     0.972850000000     0.965350000000     0.436301   
C85      C      0.236300000000     0.722400000000     0.704900000000     0.45206    
C86      C      0.227550000000     0.705600000000     0.679400000000    -0.228761   
C87      C      0.230500000000     0.662150000000     0.688050000000     0.174565   
C88      C      0.224350000000     0.646450000000     0.663250000000    -0.282351   
C89      C      0.214650000000     0.673700000000     0.629500000000     0.320353   
C90      C      0.210500000000     0.716550000000     0.620450000000    -0.295884   
C91      C      0.217500000000     0.732950000000     0.645250000000     0.166909   
C92      C      0.174350000000     0.672750000000     0.589250000000     0.313282   
C93      C      0.180800000000     0.651150000000     0.563050000000    -0.273931   
C94      C      0.144600000000     0.665050000000     0.545850000000     0.157021   
C95      C      0.100850000000     0.700600000000     0.556300000000    -0.195253   
C96      C      0.094700000000     0.721000000000     0.583800000000     0.171554   
C97      C      0.131200000000     0.706700000000     0.600600000000    -0.290295   
C98      C      0.061950000000     0.716900000000     0.536300000000     0.427365   
C99      C      0.104900000000     0.794600000000     0.804100000000    -0.223304   
C100     C      0.073800000000     0.831450000000     0.784850000000     0.171556   
C101     C      0.024500000000     0.849000000000     0.802500000000    -0.281949   
C102     C      0.004850000000     0.829850000000     0.841250000000     0.313518   
C103     C      0.034650000000     0.792550000000     0.860050000000    -0.285275   
C104     C      0.084450000000     0.775700000000     0.841700000000     0.179006   
C105     C      0.420200000000     0.871150000000     0.843750000000     0.301084   
C106     C      0.418600000000     0.858750000000     0.814050000000    -0.287119   
C107     C      0.380900000000     0.884500000000     0.798400000000     0.17426    
C108     C      0.343300000000     0.921650000000     0.812350000000    -0.223863   
C109     C      0.344350000000     0.932100000000     0.842600000000     0.172898   
C110     C      0.383300000000     0.907550000000     0.858450000000    -0.270895   
C111     C      0.305050000000     0.950250000000     0.792250000000     0.439025   
C112     C      0.158900000000     0.777150000000     0.784650000000     0.436297   
O1       O      0.323600000000     0.947100000000     0.986300000000    -0.454038   
O2       O      0.309555000000     0.511240000000     0.943850000000    -0.451135   
O3       O      0.028050000000     0.904100000000     0.855300000000    -0.314451   
O4       O      0.182050000000     0.996600000000     0.799200000000    -0.448852   
O5       O      0.218850000000     0.949150000000     0.758650000000    -0.439367   
O6       O      0.279350000000     0.988200000000     0.549000000000    -0.442312   
O7       O      0.334700000000     0.596550000000     0.612250000000    -0.308841   
O8       O      0.489850000000     0.687900000000     0.514000000000    -0.453111   
O9       O      0.438050000000     0.734700000000     0.554300000000    -0.445107   
O10      O      0.266300000000     0.552550000000     0.505350000000    -0.451176   
O11      O      0.257000000000     0.802900000000     0.763700000000    -0.454036   
O12      O      0.264645000000     0.738760000000     0.806150000000    -0.451138   
O13      O      0.287450000000     0.845900000000     0.894700000000    -0.314449   
O14      O      0.477850000000     0.753400000000     0.950800000000    -0.448854   
O15      O      0.426650000000     0.800850000000     0.991350000000    -0.43937    
O16      O      0.316550000000     0.761800000000     0.701000000000    -0.442311   
O17      O      0.043500000000     0.653450000000     0.637750000000    -0.308844   
O18      O      0.191750000000     0.562100000000     0.736000000000    -0.453111   
O19      O      0.227050000000     0.515300000000     0.695700000000    -0.445107   
O20      O      0.324200000000     0.697450000000     0.744650000000    -0.451174   
O21      O      0.176400000000     0.552900000000     0.513700000000    -0.454033   
O22      O      0.190445000000     0.988760000000     0.556150000000    -0.451135   
O23      O      0.471950000000     0.595900000000     0.644700000000    -0.314447   
O24      O      0.317950000000     0.503400000000     0.700800000000    -0.448854   
O25      O      0.281150000000     0.550850000000     0.741350000000    -0.439367   
O26      O      0.220650000000     0.511800000000     0.951000000000    -0.442312   
O27      O      0.165300000000     0.903450000000     0.887750000000    -0.308841   
O28      O      0.010150000000     0.812100000000     0.986000000000    -0.453106   
O29      O      0.061950000000     0.765300000000     0.945700000000    -0.445106   
O30      O      0.233700000000     0.947450000000     0.994650000000    -0.451181   
O31      O      0.243000000000     0.697100000000     0.736300000000    -0.454036   
O32      O      0.235355000000     0.761240000000     0.693850000000    -0.451138   
O33      O      0.212550000000     0.654100000000     0.605300000000    -0.314449   
O34      O      0.022150000000     0.746600000000     0.549200000000    -0.448849   
O35      O      0.073350000000     0.699150000000     0.508650000000    -0.439369   
O36      O      0.183450000000     0.738200000000     0.799000000000    -0.442311   
O37      O      0.456500000000     0.846550000000     0.862250000000    -0.30884    
O38      O      0.308250000000     0.937900000000     0.764000000000    -0.453112   
O39      O      0.272950000000     0.984700000000     0.804300000000    -0.445107   
O40      O      0.175800000000     0.802550000000     0.755350000000    -0.451174   
Cu1      Cu     0.758350000000     0.462140000000     0.024890000000     0.974075   
Cu2      Cu     0.728400000000     0.027880000000     0.273780000000     0.963745   
Cu3      Cu     0.745380000000     0.287860000000     0.225110000000     0.97409    
Cu4      Cu     0.530060000000     0.222120000000     0.476220000000     0.963743   
Cu5      Cu     0.741650000000     0.037860000000     0.475110000000     0.974091   
Cu6      Cu     0.771600000000     0.472120000000     0.226220000000     0.963744   
Cu7      Cu     0.754620000000     0.212140000000     0.274890000000     0.974091   
Cu8      Cu     0.969940000000     0.277880000000     0.023780000000     0.963737   
H1       H      0.908650000000     0.393050000000     0.461450000000    -0.00618898 
H2       H      0.987050000000     0.366650000000     0.419450000000     0.151401   
H3       H      0.964250000000     0.485400000000     0.347400000000     0.134284   
H4       H      0.883350000000     0.012650000000     0.388650000000    -0.0113371  
H5       H      0.606800000000     0.376450000000     0.306550000000     0.144492   
H6       H      0.672850000000     0.400550000000     0.277050000000    -0.00321163 
H7       H      0.598650000000     0.495050000000     0.341250000000    -0.0122878  
H8       H      0.533250000000     0.470500000000     0.369900000000     0.132142   
H9       H      0.809250000000     0.094550000000     0.008850000000    -0.0142181  
H10      H      0.833600000000     0.123700000000     0.038900000000     0.133425   
H11      H      0.814850000000     0.028600000000     0.135600000000     0.152201   
H12      H      0.789200000000     0.000500000000     0.105200000000    -0.0143106  
H13      H      0.919000000000     0.082850000000     0.054850000000     0.131366   
H14      H      0.965350000000     0.127000000000     0.027400000000    -0.0131985  
H15      H      0.872300000000     0.206400000000     0.103200000000    -0.00861037 
H16      H      0.821000000000     0.165800000000     0.128900000000     0.142731   
H17      H      0.763150000000     0.356950000000     0.288550000000    -0.00619016 
H18      H      0.773150000000     0.383350000000     0.330550000000     0.151397   
H19      H      0.797050000000     0.264600000000     0.402600000000     0.134281   
H20      H      0.784650000000     0.237350000000     0.361350000000    -0.0113403  
H21      H      0.789800000000     0.373550000000     0.443450000000     0.144493   
H22      H      0.850450000000     0.349450000000     0.472950000000    -0.00321192 
H23      H      0.934950000000     0.254950000000     0.408750000000    -0.0122846  
H24      H      0.873650000000     0.279500000000     0.380100000000     0.132145   
H25      H      0.912650000000     0.155450000000     0.241150000000    -0.0142136  
H26      H      0.996200000000     0.126300000000     0.211100000000     0.133431   
H27      H      0.979050000000     0.221400000000     0.114400000000     0.152202   
H28      H      0.894900000000     0.249500000000     0.144800000000    -0.0143096  
H29      H      0.556700000000     0.167150000000     0.195150000000     0.131366   
H30      H      0.619750000000     0.123000000000     0.222600000000    -0.0132021  
H31      H      0.681900000000     0.043600000000     0.146800000000    -0.00861106 
H32      H      0.615700000000     0.084200000000     0.121100000000     0.142732   
H33      H      0.591350000000     0.106950000000     0.038550000000    -0.00618952 
H34      H      0.512950000000     0.133350000000     0.080550000000     0.151396   
H35      H      0.535750000000     0.014600000000     0.152600000000     0.134279   
H36      H      0.616650000000     0.487350000000     0.111350000000    -0.0113394  
H37      H      0.893200000000     0.123550000000     0.193450000000     0.144493   
H38      H      0.827150000000     0.099450000000     0.222950000000    -0.00321202 
H39      H      0.901350000000     0.004950000000     0.158750000000    -0.0122864  
H40      H      0.966750000000     0.029500000000     0.130100000000     0.132147   
H41      H      0.690750000000     0.405450000000     0.491150000000    -0.0142161  
H42      H      0.666400000000     0.376300000000     0.461100000000     0.133426   
H43      H      0.685150000000     0.471400000000     0.364400000000     0.152201   
H44      H      0.710800000000     0.499500000000     0.394800000000    -0.0143108  
H45      H      0.581000000000     0.417150000000     0.445150000000     0.131365   
H46      H      0.534650000000     0.373000000000     0.472600000000    -0.0132014  
H47      H      0.627700000000     0.293600000000     0.396800000000    -0.00861037 
H48      H      0.679000000000     0.334200000000     0.371100000000     0.142731   
H49      H      0.736850000000     0.143050000000     0.211450000000    -0.0061904  
H50      H      0.726850000000     0.116650000000     0.169450000000     0.151397   
H51      H      0.702950000000     0.235400000000     0.097400000000     0.13428    
H52      H      0.715350000000     0.262650000000     0.138650000000    -0.0113414  
H53      H      0.710200000000     0.126450000000     0.056550000000     0.144493   
H54      H      0.649550000000     0.150550000000     0.027050000000    -0.00321366 
H55      H      0.565050000000     0.245050000000     0.091250000000    -0.0122889  
H56      H      0.626350000000     0.220500000000     0.119900000000     0.132143   
H57      H      0.587350000000     0.344550000000     0.258850000000    -0.0142144  
H58      H      0.503800000000     0.373700000000     0.288900000000     0.133424   
H59      H      0.520950000000     0.278600000000     0.385600000000     0.152199   
H60      H      0.605100000000     0.250500000000     0.355200000000    -0.014309   
H61      H      0.943300000000     0.332850000000     0.304850000000     0.13137    
H62      H      0.880250000000     0.377000000000     0.277400000000    -0.0132011  
H63      H      0.818100000000     0.456400000000     0.353200000000    -0.0086116  
H64      H      0.884300000000     0.415800000000     0.378900000000     0.142733   
C1       C      0.836400000000     0.472400000000     0.454900000000     0.452057   
C2       C      0.887450000000     0.455600000000     0.429400000000    -0.228758   
C3       C      0.919300000000     0.412150000000     0.438050000000     0.174563   
C4       C      0.965950000000     0.396450000000     0.413250000000    -0.282349   
C5       C      0.982150000000     0.423700000000     0.379500000000     0.320357   
C6       C      0.952500000000     0.466550000000     0.370450000000    -0.295882   
C7       C      0.904300000000     0.482950000000     0.395250000000     0.166907   
C8       C      0.563650000000     0.422750000000     0.339250000000     0.31328    
C9       C      0.605000000000     0.401150000000     0.313050000000    -0.27393    
C10      C      0.644500000000     0.415050000000     0.295850000000     0.15702    
C11      C      0.642250000000     0.450600000000     0.306300000000    -0.195253   
C12      C      0.600500000000     0.471000000000     0.333800000000     0.171553   
C13      C      0.561500000000     0.456700000000     0.350600000000    -0.290293   
C14      C      0.684850000000     0.466900000000     0.286300000000     0.427365   
C15      C      0.796400000000     0.044600000000     0.054100000000    -0.223309   
C16      C      0.809900000000     0.081450000000     0.034850000000     0.171559   
C17      C      0.824000000000     0.099000000000     0.052500000000    -0.281952   
C18      C      0.824050000000     0.079850000000     0.091250000000     0.313515   
C19      C      0.812750000000     0.042550000000     0.110050000000    -0.285277   
C20      C      0.798150000000     0.025700000000     0.091700000000     0.17901    
C21      C      0.864900000000     0.121150000000     0.093750000000     0.301082   
C22      C      0.908600000000     0.108750000000     0.064050000000    -0.287116   
C23      C      0.936200000000     0.134500000000     0.048400000000     0.174256   
C24      C      0.922700000000     0.171650000000     0.062350000000    -0.22386    
C25      C      0.880950000000     0.182100000000     0.092600000000     0.172894   
C26      C      0.850700000000     0.157550000000     0.108450000000    -0.270893   
C27      C      0.952450000000     0.200250000000     0.042250000000     0.43902    
C28      C      0.779300000000     0.027150000000     0.034650000000     0.436301   
C29      C      0.763700000000     0.277600000000     0.295100000000     0.45206    
C30      C      0.772450000000     0.294400000000     0.320600000000    -0.228761   
C31      C      0.769500000000     0.337850000000     0.311950000000     0.174565   
C32      C      0.775650000000     0.353550000000     0.336750000000    -0.282351   
C33      C      0.785350000000     0.326300000000     0.370500000000     0.320353   
C34      C      0.789500000000     0.283450000000     0.379550000000    -0.295884   
C35      C      0.782500000000     0.267050000000     0.354750000000     0.166909   
C36      C      0.825650000000     0.327250000000     0.410750000000     0.313282   
C37      C      0.819200000000     0.348850000000     0.436950000000    -0.273931   
C38      C      0.855400000000     0.334950000000     0.454150000000     0.157021   
C39      C      0.899150000000     0.299400000000     0.443700000000    -0.195253   
C40      C      0.905300000000     0.279000000000     0.416200000000     0.171554   
C41      C      0.868800000000     0.293300000000     0.399400000000    -0.290295   
C42      C      0.938050000000     0.283100000000     0.463700000000     0.427365   
C43      C      0.895100000000     0.205400000000     0.195900000000    -0.223304   
C44      C      0.926200000000     0.168550000000     0.215150000000     0.171556   
C45      C      0.975500000000     0.151000000000     0.197500000000    -0.281949   
C46      C      0.995150000000     0.170150000000     0.158750000000     0.313518   
C47      C      0.965350000000     0.207450000000     0.139950000000    -0.285275   
C48      C      0.915550000000     0.224300000000     0.158300000000     0.179006   
C49      C      0.579800000000     0.128850000000     0.156250000000     0.301084   
C50      C      0.581400000000     0.141250000000     0.185950000000    -0.287119   
C51      C      0.619100000000     0.115500000000     0.201600000000     0.17426    
C52      C      0.656700000000     0.078350000000     0.187650000000    -0.223863   
C53      C      0.655650000000     0.067900000000     0.157400000000     0.172898   
C54      C      0.616700000000     0.092450000000     0.141550000000    -0.270895   
C55      C      0.694950000000     0.049750000000     0.207750000000     0.439025   
C56      C      0.841100000000     0.222850000000     0.215350000000     0.436297   
C57      C      0.663600000000     0.027600000000     0.045100000000     0.452058   
C58      C      0.612550000000     0.044400000000     0.070600000000    -0.228758   
C59      C      0.580700000000     0.087850000000     0.061950000000     0.17456    
C60      C      0.534050000000     0.103550000000     0.086750000000    -0.282346   
C61      C      0.517850000000     0.076300000000     0.120500000000     0.320348   
C62      C      0.547500000000     0.033450000000     0.129550000000    -0.29588    
C63      C      0.595700000000     0.017050000000     0.104750000000     0.166904   
C64      C      0.936350000000     0.077250000000     0.160750000000     0.313285   
C65      C      0.895000000000     0.098850000000     0.186950000000    -0.273932   
C66      C      0.855500000000     0.084950000000     0.204150000000     0.157023   
C67      C      0.857750000000     0.049400000000     0.193700000000    -0.195254   
C68      C      0.899500000000     0.029000000000     0.166200000000     0.171556   
C69      C      0.938500000000     0.043300000000     0.149400000000    -0.290296   
C70      C      0.815150000000     0.033100000000     0.213700000000     0.427366   
C71      C      0.703600000000     0.455400000000     0.445900000000    -0.223308   
C72      C      0.690100000000     0.418550000000     0.465150000000     0.171558   
C73      C      0.676000000000     0.401000000000     0.447500000000    -0.281952   
C74      C      0.675950000000     0.420150000000     0.408750000000     0.313515   
C75      C      0.687250000000     0.457450000000     0.389950000000    -0.285277   
C76      C      0.701850000000     0.474300000000     0.408300000000     0.179008   
C77      C      0.635100000000     0.378850000000     0.406250000000     0.301083   
C78      C      0.591400000000     0.391250000000     0.435950000000    -0.287117   
C79      C      0.563800000000     0.365500000000     0.451600000000     0.174258   
C80      C      0.577300000000     0.328350000000     0.437650000000    -0.223861   
C81      C      0.619050000000     0.317900000000     0.407400000000     0.172895   
C82      C      0.649300000000     0.342450000000     0.391550000000    -0.270893   
C83      C      0.547550000000     0.299750000000     0.457750000000     0.439023   
C84      C      0.720700000000     0.472850000000     0.465350000000     0.436299   
C85      C      0.736300000000     0.222400000000     0.204900000000     0.45206    
C86      C      0.727550000000     0.205600000000     0.179400000000    -0.228762   
C87      C      0.730500000000     0.162150000000     0.188050000000     0.174565   
C88      C      0.724350000000     0.146450000000     0.163250000000    -0.282352   
C89      C      0.714650000000     0.173700000000     0.129500000000     0.320353   
C90      C      0.710500000000     0.216550000000     0.120450000000    -0.295885   
C91      C      0.717500000000     0.232950000000     0.145250000000     0.166908   
C92      C      0.674350000000     0.172750000000     0.089250000000     0.313282   
C93      C      0.680800000000     0.151150000000     0.063050000000    -0.273933   
C94      C      0.644600000000     0.165050000000     0.045850000000     0.157023   
C95      C      0.600850000000     0.200600000000     0.056300000000    -0.195256   
C96      C      0.594700000000     0.221000000000     0.083800000000     0.171556   
C97      C      0.631200000000     0.206700000000     0.100600000000    -0.290297   
C98      C      0.561950000000     0.216900000000     0.036300000000     0.427366   
C99      C      0.604900000000     0.294600000000     0.304100000000    -0.223303   
C100     C      0.573800000000     0.331450000000     0.284850000000     0.171552   
C101     C      0.524500000000     0.349000000000     0.302500000000    -0.281946   
C102     C      0.504850000000     0.329850000000     0.341250000000     0.31351    
C103     C      0.534650000000     0.292550000000     0.360050000000    -0.285272   
C104     C      0.584450000000     0.275700000000     0.341700000000     0.179003   
C105     C      0.920200000000     0.371150000000     0.343750000000     0.301088   
C106     C      0.918600000000     0.358750000000     0.314050000000    -0.287121   
C107     C      0.880900000000     0.384500000000     0.298400000000     0.174263   
C108     C      0.843300000000     0.421650000000     0.312350000000    -0.223864   
C109     C      0.844350000000     0.432100000000     0.342600000000     0.172899   
C110     C      0.883300000000     0.407550000000     0.358450000000    -0.270897   
C111     C      0.805050000000     0.450250000000     0.292250000000     0.439026   
C112     C      0.658900000000     0.277150000000     0.284650000000     0.436296   
O1       O      0.823600000000     0.447100000000     0.486300000000    -0.454033   
O2       O      0.809555000000     0.011240000000     0.443850000000    -0.451135   
O3       O      0.528050000000     0.404100000000     0.355300000000    -0.314447   
O4       O      0.682050000000     0.496600000000     0.299200000000    -0.448854   
O5       O      0.718850000000     0.449150000000     0.258650000000    -0.439367   
O6       O      0.779350000000     0.488200000000     0.049000000000    -0.442312   
O7       O      0.834700000000     0.096550000000     0.112250000000    -0.308841   
O8       O      0.989850000000     0.187900000000     0.014000000000    -0.453106   
O9       O      0.938050000000     0.234700000000     0.054300000000    -0.445106   
O10      O      0.766300000000     0.052550000000     0.005350000000    -0.451181   
O11      O      0.757000000000     0.302900000000     0.263700000000    -0.454036   
O12      O      0.764645000000     0.238760000000     0.306150000000    -0.451138   
O13      O      0.787450000000     0.345900000000     0.394700000000    -0.314449   
O14      O      0.977850000000     0.253400000000     0.450800000000    -0.448849   
O15      O      0.926650000000     0.300850000000     0.491350000000    -0.439369   
O16      O      0.816550000000     0.261800000000     0.201000000000    -0.442311   
O17      O      0.543500000000     0.153450000000     0.137750000000    -0.30884    
O18      O      0.691750000000     0.062100000000     0.236000000000    -0.453112   
O19      O      0.727050000000     0.015300000000     0.195700000000    -0.445107   
O20      O      0.824200000000     0.197450000000     0.244650000000    -0.451174   
O21      O      0.676400000000     0.052900000000     0.013700000000    -0.454038   
O22      O      0.690445000000     0.488760000000     0.056150000000    -0.451135   
O23      O      0.971950000000     0.095900000000     0.144700000000    -0.314451   
O24      O      0.817950000000     0.003400000000     0.200800000000    -0.448852   
O25      O      0.781150000000     0.050850000000     0.241350000000    -0.439367   
O26      O      0.720650000000     0.011800000000     0.451000000000    -0.442312   
O27      O      0.665300000000     0.403450000000     0.387750000000    -0.308841   
O28      O      0.510150000000     0.312100000000     0.486000000000    -0.453111   
O29      O      0.561950000000     0.265300000000     0.445700000000    -0.445107   
O30      O      0.733700000000     0.447450000000     0.494650000000    -0.451176   
O31      O      0.743000000000     0.197100000000     0.236300000000    -0.454036   
O32      O      0.735355000000     0.261240000000     0.193850000000    -0.451138   
O33      O      0.712550000000     0.154100000000     0.105300000000    -0.314449   
O34      O      0.522150000000     0.246600000000     0.049200000000    -0.448854   
O35      O      0.573350000000     0.199150000000     0.008650000000    -0.43937    
O36      O      0.683450000000     0.238200000000     0.299000000000    -0.442311   
O37      O      0.956500000000     0.346550000000     0.362250000000    -0.308844   
O38      O      0.808250000000     0.437900000000     0.264000000000    -0.453111   
O39      O      0.772950000000     0.484700000000     0.304300000000    -0.445107   
O40      O      0.675800000000     0.302550000000     0.255350000000    -0.451174   
Cu1      Cu     0.758350000000     0.462140000000     0.524890000000     0.97409    
Cu2      Cu     0.728400000000     0.027880000000     0.773780000000     0.963744   
Cu3      Cu     0.745380000000     0.287860000000     0.725110000000     0.97409    
Cu4      Cu     0.530060000000     0.222120000000     0.976220000000     0.963742   
Cu5      Cu     0.741650000000     0.037860000000     0.975110000000     0.9741     
Cu6      Cu     0.771600000000     0.472120000000     0.726220000000     0.963745   
Cu7      Cu     0.754620000000     0.212140000000     0.774890000000     0.974091   
Cu8      Cu     0.969940000000     0.277880000000     0.523780000000     0.963755   
H1       H      0.908650000000     0.393050000000     0.961450000000    -0.00619014 
H2       H      0.987050000000     0.366650000000     0.919450000000     0.151407   
H3       H      0.964250000000     0.485400000000     0.847400000000     0.134289   
H4       H      0.883350000000     0.012650000000     0.888650000000    -0.0113388  
H5       H      0.606800000000     0.376450000000     0.806550000000     0.144492   
H6       H      0.672850000000     0.400550000000     0.777050000000    -0.0032116  
H7       H      0.598650000000     0.495050000000     0.841250000000    -0.0122879  
H8       H      0.533250000000     0.470500000000     0.869900000000     0.132142   
H9       H      0.809250000000     0.094550000000     0.508850000000    -0.0142152  
H10      H      0.833600000000     0.123700000000     0.538900000000     0.133426   
H11      H      0.814850000000     0.028600000000     0.635600000000     0.152201   
H12      H      0.789200000000     0.000500000000     0.605200000000    -0.0143101  
H13      H      0.919000000000     0.082850000000     0.554850000000     0.131368   
H14      H      0.965350000000     0.127000000000     0.527400000000    -0.0131953  
H15      H      0.872300000000     0.206400000000     0.603200000000    -0.00860982 
H16      H      0.821000000000     0.165800000000     0.628900000000     0.142731   
H17      H      0.763150000000     0.356950000000     0.788550000000    -0.00619003 
H18      H      0.773150000000     0.383350000000     0.830550000000     0.151397   
H19      H      0.797050000000     0.264600000000     0.902600000000     0.134281   
H20      H      0.784650000000     0.237350000000     0.861350000000    -0.0113399  
H21      H      0.789800000000     0.373550000000     0.943450000000     0.144492   
H22      H      0.850450000000     0.349450000000     0.972950000000    -0.00321116 
H23      H      0.934950000000     0.254950000000     0.908750000000    -0.0122824  
H24      H      0.873650000000     0.279500000000     0.880100000000     0.132145   
H25      H      0.912650000000     0.155450000000     0.741150000000    -0.0142149  
H26      H      0.996200000000     0.126300000000     0.711100000000     0.133437   
H27      H      0.979050000000     0.221400000000     0.614400000000     0.152207   
H28      H      0.894900000000     0.249500000000     0.644800000000    -0.0143112  
H29      H      0.556700000000     0.167150000000     0.695150000000     0.131366   
H30      H      0.619750000000     0.123000000000     0.722600000000    -0.0132021  
H31      H      0.681900000000     0.043600000000     0.646800000000    -0.00861114 
H32      H      0.615700000000     0.084200000000     0.621100000000     0.142732   
H33      H      0.591350000000     0.106950000000     0.538550000000    -0.00618846 
H34      H      0.512950000000     0.133350000000     0.580550000000     0.151395   
H35      H      0.535750000000     0.014600000000     0.652600000000     0.134278   
H36      H      0.616650000000     0.487350000000     0.611350000000    -0.011339   
H37      H      0.893200000000     0.123550000000     0.693450000000     0.144493   
H38      H      0.827150000000     0.099450000000     0.722950000000    -0.00321165 
H39      H      0.901350000000     0.004950000000     0.658750000000    -0.0122852  
H40      H      0.966750000000     0.029500000000     0.630100000000     0.132149   
H41      H      0.690750000000     0.405450000000     0.991150000000    -0.0142168  
H42      H      0.666400000000     0.376300000000     0.961100000000     0.133425   
H43      H      0.685150000000     0.471400000000     0.864400000000     0.152201   
H44      H      0.710800000000     0.499500000000     0.894800000000    -0.0143108  
H45      H      0.581000000000     0.417150000000     0.945150000000     0.131364   
H46      H      0.534650000000     0.373000000000     0.972600000000    -0.0132025  
H47      H      0.627700000000     0.293600000000     0.896800000000    -0.00861041 
H48      H      0.679000000000     0.334200000000     0.871100000000     0.142731   
H49      H      0.736850000000     0.143050000000     0.711450000000    -0.00619046 
H50      H      0.726850000000     0.116650000000     0.669450000000     0.151397   
H51      H      0.702950000000     0.235400000000     0.597400000000     0.134281   
H52      H      0.715350000000     0.262650000000     0.638650000000    -0.011341   
H53      H      0.710200000000     0.126450000000     0.556550000000     0.144493   
H54      H      0.649550000000     0.150550000000     0.527050000000    -0.00321233 
H55      H      0.565050000000     0.245050000000     0.591250000000    -0.0122885  
H56      H      0.626350000000     0.220500000000     0.619900000000     0.132143   
H57      H      0.587350000000     0.344550000000     0.758850000000    -0.0142143  
H58      H      0.503800000000     0.373700000000     0.788900000000     0.133424   
H59      H      0.520950000000     0.278600000000     0.885600000000     0.152199   
H60      H      0.605100000000     0.250500000000     0.855200000000    -0.0143089  
H61      H      0.943300000000     0.332850000000     0.804850000000     0.131371   
H62      H      0.880250000000     0.377000000000     0.777400000000    -0.0132001  
H63      H      0.818100000000     0.456400000000     0.853200000000    -0.0086112  
H64      H      0.884300000000     0.415800000000     0.878900000000     0.142732   
C1       C      0.836400000000     0.472400000000     0.954900000000     0.452059   
C2       C      0.887450000000     0.455600000000     0.929400000000    -0.228762   
C3       C      0.919300000000     0.412150000000     0.938050000000     0.17457    
C4       C      0.965950000000     0.396450000000     0.913250000000    -0.282357   
C5       C      0.982150000000     0.423700000000     0.879500000000     0.320372   
C6       C      0.952500000000     0.466550000000     0.870450000000    -0.29589    
C7       C      0.904300000000     0.482950000000     0.895250000000     0.166913   
C8       C      0.563650000000     0.422750000000     0.839250000000     0.31328    
C9       C      0.605000000000     0.401150000000     0.813050000000    -0.27393    
C10      C      0.644500000000     0.415050000000     0.795850000000     0.15702    
C11      C      0.642250000000     0.450600000000     0.806300000000    -0.195253   
C12      C      0.600500000000     0.471000000000     0.833800000000     0.171553   
C13      C      0.561500000000     0.456700000000     0.850600000000    -0.290293   
C14      C      0.684850000000     0.466900000000     0.786300000000     0.427365   
C15      C      0.796400000000     0.044600000000     0.554100000000    -0.223307   
C16      C      0.809900000000     0.081450000000     0.534850000000     0.171558   
C17      C      0.824000000000     0.099000000000     0.552500000000    -0.281951   
C18      C      0.824050000000     0.079850000000     0.591250000000     0.313515   
C19      C      0.812750000000     0.042550000000     0.610050000000    -0.285277   
C20      C      0.798150000000     0.025700000000     0.591700000000     0.179009   
C21      C      0.864900000000     0.121150000000     0.593750000000     0.301082   
C22      C      0.908600000000     0.108750000000     0.564050000000    -0.287115   
C23      C      0.936200000000     0.134500000000     0.548400000000     0.174257   
C24      C      0.922700000000     0.171650000000     0.562350000000    -0.223858   
C25      C      0.880950000000     0.182100000000     0.592600000000     0.172894   
C26      C      0.850700000000     0.157550000000     0.608450000000    -0.270892   
C27      C      0.952450000000     0.200250000000     0.542250000000     0.439023   
C28      C      0.779300000000     0.027150000000     0.534650000000     0.4363     
C29      C      0.763700000000     0.277600000000     0.795100000000     0.45206    
C30      C      0.772450000000     0.294400000000     0.820600000000    -0.228761   
C31      C      0.769500000000     0.337850000000     0.811950000000     0.174565   
C32      C      0.775650000000     0.353550000000     0.836750000000    -0.282351   
C33      C      0.785350000000     0.326300000000     0.870500000000     0.320353   
C34      C      0.789500000000     0.283450000000     0.879550000000    -0.295884   
C35      C      0.782500000000     0.267050000000     0.854750000000     0.166909   
C36      C      0.825650000000     0.327250000000     0.910750000000     0.313281   
C37      C      0.819200000000     0.348850000000     0.936950000000    -0.27393    
C38      C      0.855400000000     0.334950000000     0.954150000000     0.15702    
C39      C      0.899150000000     0.299400000000     0.943700000000    -0.19525    
C40      C      0.905300000000     0.279000000000     0.916200000000     0.171553   
C41      C      0.868800000000     0.293300000000     0.899400000000    -0.290293   
C42      C      0.938050000000     0.283100000000     0.963700000000     0.427363   
C43      C      0.895100000000     0.205400000000     0.695900000000    -0.223308   
C44      C      0.926200000000     0.168550000000     0.715150000000     0.171563   
C45      C      0.975500000000     0.151000000000     0.697500000000    -0.281957   
C46      C      0.995150000000     0.170150000000     0.658750000000     0.313533   
C47      C      0.965350000000     0.207450000000     0.639950000000    -0.285283   
C48      C      0.915550000000     0.224300000000     0.658300000000     0.179013   
C49      C      0.579800000000     0.128850000000     0.656250000000     0.301084   
C50      C      0.581400000000     0.141250000000     0.685950000000    -0.287119   
C51      C      0.619100000000     0.115500000000     0.701600000000     0.17426    
C52      C      0.656700000000     0.078350000000     0.687650000000    -0.223863   
C53      C      0.655650000000     0.067900000000     0.657400000000     0.172898   
C54      C      0.616700000000     0.092450000000     0.641550000000    -0.270895   
C55      C      0.694950000000     0.049750000000     0.707750000000     0.439025   
C56      C      0.841100000000     0.222850000000     0.715350000000     0.436299   
C57      C      0.663600000000     0.027600000000     0.545100000000     0.452057   
C58      C      0.612550000000     0.044400000000     0.570600000000    -0.228757   
C59      C      0.580700000000     0.087850000000     0.561950000000     0.174559   
C60      C      0.534050000000     0.103550000000     0.586750000000    -0.282345   
C61      C      0.517850000000     0.076300000000     0.620500000000     0.320348   
C62      C      0.547500000000     0.033450000000     0.629550000000    -0.295879   
C63      C      0.595700000000     0.017050000000     0.604750000000     0.166903   
C64      C      0.936350000000     0.077250000000     0.660750000000     0.313283   
C65      C      0.895000000000     0.098850000000     0.686950000000    -0.27393    
C66      C      0.855500000000     0.084950000000     0.704150000000     0.157022   
C67      C      0.857750000000     0.049400000000     0.693700000000    -0.195253   
C68      C      0.899500000000     0.029000000000     0.666200000000     0.171555   
C69      C      0.938500000000     0.043300000000     0.649400000000    -0.290293   
C70      C      0.815150000000     0.033100000000     0.713700000000     0.427366   
C71      C      0.703600000000     0.455400000000     0.945900000000    -0.223308   
C72      C      0.690100000000     0.418550000000     0.965150000000     0.171557   
C73      C      0.676000000000     0.401000000000     0.947500000000    -0.281952   
C74      C      0.675950000000     0.420150000000     0.908750000000     0.313515   
C75      C      0.687250000000     0.457450000000     0.889950000000    -0.285277   
C76      C      0.701850000000     0.474300000000     0.908300000000     0.179008   
C77      C      0.635100000000     0.378850000000     0.906250000000     0.301083   
C78      C      0.591400000000     0.391250000000     0.935950000000    -0.287117   
C79      C      0.563800000000     0.365500000000     0.951600000000     0.174258   
C80      C      0.577300000000     0.328350000000     0.937650000000    -0.223861   
C81      C      0.619050000000     0.317900000000     0.907400000000     0.172895   
C82      C      0.649300000000     0.342450000000     0.891550000000    -0.270893   
C83      C      0.547550000000     0.299750000000     0.957750000000     0.439024   
C84      C      0.720700000000     0.472850000000     0.965350000000     0.436299   
C85      C      0.736300000000     0.222400000000     0.704900000000     0.45206    
C86      C      0.727550000000     0.205600000000     0.679400000000    -0.228762   
C87      C      0.730500000000     0.162150000000     0.688050000000     0.174565   
C88      C      0.724350000000     0.146450000000     0.663250000000    -0.282352   
C89      C      0.714650000000     0.173700000000     0.629500000000     0.320353   
C90      C      0.710500000000     0.216550000000     0.620450000000    -0.295885   
C91      C      0.717500000000     0.232950000000     0.645250000000     0.166908   
C92      C      0.674350000000     0.172750000000     0.589250000000     0.313282   
C93      C      0.680800000000     0.151150000000     0.563050000000    -0.273932   
C94      C      0.644600000000     0.165050000000     0.545850000000     0.157022   
C95      C      0.600850000000     0.200600000000     0.556300000000    -0.195255   
C96      C      0.594700000000     0.221000000000     0.583800000000     0.171555   
C97      C      0.631200000000     0.206700000000     0.600600000000    -0.290296   
C98      C      0.561950000000     0.216900000000     0.536300000000     0.427366   
C99      C      0.604900000000     0.294600000000     0.804100000000    -0.223303   
C100     C      0.573800000000     0.331450000000     0.784850000000     0.171552   
C101     C      0.524500000000     0.349000000000     0.802500000000    -0.281946   
C102     C      0.504850000000     0.329850000000     0.841250000000     0.31351    
C103     C      0.534650000000     0.292550000000     0.860050000000    -0.285272   
C104     C      0.584450000000     0.275700000000     0.841700000000     0.179003   
C105     C      0.920200000000     0.371150000000     0.843750000000     0.301086   
C106     C      0.918600000000     0.358750000000     0.814050000000    -0.287119   
C107     C      0.880900000000     0.384500000000     0.798400000000     0.174262   
C108     C      0.843300000000     0.421650000000     0.812350000000    -0.223863   
C109     C      0.844350000000     0.432100000000     0.842600000000     0.172899   
C110     C      0.883300000000     0.407550000000     0.858450000000    -0.270895   
C111     C      0.805050000000     0.450250000000     0.792250000000     0.439025   
C112     C      0.658900000000     0.277150000000     0.784650000000     0.436296   
O1       O      0.823600000000     0.447100000000     0.986300000000    -0.45403    
O2       O      0.809555000000     0.011240000000     0.943850000000    -0.451136   
O3       O      0.528050000000     0.404100000000     0.855300000000    -0.314447   
O4       O      0.682050000000     0.496600000000     0.799200000000    -0.448854   
O5       O      0.718850000000     0.449150000000     0.758650000000    -0.439367   
O6       O      0.779350000000     0.488200000000     0.549000000000    -0.442312   
O7       O      0.834700000000     0.096550000000     0.612250000000    -0.308841   
O8       O      0.989850000000     0.187900000000     0.514000000000    -0.453103   
O9       O      0.938050000000     0.234700000000     0.554300000000    -0.445107   
O10      O      0.766300000000     0.052550000000     0.505350000000    -0.451176   
O11      O      0.757000000000     0.302900000000     0.763700000000    -0.454035   
O12      O      0.764645000000     0.238760000000     0.806150000000    -0.451138   
O13      O      0.787450000000     0.345900000000     0.894700000000    -0.314448   
O14      O      0.977850000000     0.253400000000     0.950800000000    -0.448839   
O15      O      0.926650000000     0.300850000000     0.991350000000    -0.439361   
O16      O      0.816550000000     0.261800000000     0.701000000000    -0.442311   
O17      O      0.543500000000     0.153450000000     0.637750000000    -0.30884    
O18      O      0.691750000000     0.062100000000     0.736000000000    -0.453112   
O19      O      0.727050000000     0.015300000000     0.695700000000    -0.445107   
O20      O      0.824200000000     0.197450000000     0.744650000000    -0.451174   
O21      O      0.676400000000     0.052900000000     0.513700000000    -0.454034   
O22      O      0.690445000000     0.488760000000     0.556150000000    -0.451136   
O23      O      0.971950000000     0.095900000000     0.644700000000    -0.314442   
O24      O      0.817950000000     0.003400000000     0.700800000000    -0.448852   
O25      O      0.781150000000     0.050850000000     0.741350000000    -0.439367   
O26      O      0.720650000000     0.011800000000     0.951000000000    -0.442314   
O27      O      0.665300000000     0.403450000000     0.887750000000    -0.308841   
O28      O      0.510150000000     0.312100000000     0.986000000000    -0.453112   
O29      O      0.561950000000     0.265300000000     0.945700000000    -0.445106   
O30      O      0.733700000000     0.447450000000     0.994650000000    -0.451174   
O31      O      0.743000000000     0.197100000000     0.736300000000    -0.454036   
O32      O      0.735355000000     0.261240000000     0.693850000000    -0.451138   
O33      O      0.712550000000     0.154100000000     0.605300000000    -0.314449   
O34      O      0.522150000000     0.246600000000     0.549200000000    -0.448854   
O35      O      0.573350000000     0.199150000000     0.508650000000    -0.439368   
O36      O      0.683450000000     0.238200000000     0.799000000000    -0.442311   
O37      O      0.956500000000     0.346550000000     0.862250000000    -0.308836   
O38      O      0.808250000000     0.437900000000     0.764000000000    -0.453111   
O39      O      0.772950000000     0.484700000000     0.804300000000    -0.445107   
O40      O      0.675800000000     0.302550000000     0.755350000000    -0.451174   
Cu1      Cu     0.758350000000     0.962140000000     0.024890000000     0.974074   
Cu2      Cu     0.728400000000     0.527880000000     0.273780000000     0.963743   
Cu3      Cu     0.745380000000     0.787860000000     0.225110000000     0.97409    
Cu4      Cu     0.530060000000     0.722120000000     0.476220000000     0.963743   
Cu5      Cu     0.741650000000     0.537860000000     0.475110000000     0.97409    
Cu6      Cu     0.771600000000     0.972120000000     0.226220000000     0.963742   
Cu7      Cu     0.754620000000     0.712140000000     0.274890000000     0.974091   
Cu8      Cu     0.969940000000     0.777880000000     0.023780000000     0.963734   
H1       H      0.908650000000     0.893050000000     0.461450000000    -0.00618838 
H2       H      0.987050000000     0.866650000000     0.419450000000     0.1514     
H3       H      0.964250000000     0.985400000000     0.347400000000     0.134283   
H4       H      0.883350000000     0.512650000000     0.388650000000    -0.0113391  
H5       H      0.606800000000     0.876450000000     0.306550000000     0.144492   
H6       H      0.672850000000     0.900550000000     0.277050000000    -0.00321168 
H7       H      0.598650000000     0.995050000000     0.341250000000    -0.0122879  
H8       H      0.533250000000     0.970500000000     0.369900000000     0.132142   
H9       H      0.809250000000     0.594550000000     0.008850000000    -0.0142181  
H10      H      0.833600000000     0.623700000000     0.038900000000     0.133425   
H11      H      0.814850000000     0.528600000000     0.135600000000     0.152201   
H12      H      0.789200000000     0.500500000000     0.105200000000    -0.0143107  
H13      H      0.919000000000     0.582850000000     0.054850000000     0.131366   
H14      H      0.965350000000     0.627000000000     0.027400000000    -0.0131987  
H15      H      0.872300000000     0.706400000000     0.103200000000    -0.00861042 
H16      H      0.821000000000     0.665800000000     0.128900000000     0.142731   
H17      H      0.763150000000     0.856950000000     0.288550000000    -0.00619017 
H18      H      0.773150000000     0.883350000000     0.330550000000     0.151397   
H19      H      0.797050000000     0.764600000000     0.402600000000     0.134281   
H20      H      0.784650000000     0.737350000000     0.361350000000    -0.0113403  
H21      H      0.789800000000     0.873550000000     0.443450000000     0.144493   
H22      H      0.850450000000     0.849450000000     0.472950000000    -0.00321197 
H23      H      0.934950000000     0.754950000000     0.408750000000    -0.0122848  
H24      H      0.873650000000     0.779500000000     0.380100000000     0.132144   
H25      H      0.912650000000     0.655450000000     0.241150000000    -0.0142135  
H26      H      0.996200000000     0.626300000000     0.211100000000     0.133431   
H27      H      0.979050000000     0.721400000000     0.114400000000     0.152201   
H28      H      0.894900000000     0.749500000000     0.144800000000    -0.0143094  
H29      H      0.556700000000     0.667150000000     0.195150000000     0.131366   
H30      H      0.619750000000     0.623000000000     0.222600000000    -0.0132021  
H31      H      0.681900000000     0.543600000000     0.146800000000    -0.00861114 
H32      H      0.615700000000     0.584200000000     0.121100000000     0.142732   
H33      H      0.591350000000     0.606950000000     0.038550000000    -0.00618934 
H34      H      0.512950000000     0.633350000000     0.080550000000     0.151395   
H35      H      0.535750000000     0.514600000000     0.152600000000     0.134278   
H36      H      0.616650000000     0.987350000000     0.111350000000    -0.0113402  
H37      H      0.893200000000     0.623550000000     0.193450000000     0.144493   
H38      H      0.827150000000     0.599450000000     0.222950000000    -0.00321212 
H39      H      0.901350000000     0.504950000000     0.158750000000    -0.0122866  
H40      H      0.966750000000     0.529500000000     0.130100000000     0.132147   
H41      H      0.690750000000     0.905450000000     0.491150000000    -0.0142161  
H42      H      0.666400000000     0.876300000000     0.461100000000     0.133426   
H43      H      0.685150000000     0.971400000000     0.364400000000     0.152201   
H44      H      0.710800000000     0.999500000000     0.394800000000    -0.0143109  
H45      H      0.581000000000     0.917150000000     0.445150000000     0.131365   
H46      H      0.534650000000     0.873000000000     0.472600000000    -0.0132013  
H47      H      0.627700000000     0.793600000000     0.396800000000    -0.00861036 
H48      H      0.679000000000     0.834200000000     0.371100000000     0.142731   
H49      H      0.736850000000     0.643050000000     0.211450000000    -0.00619039 
H50      H      0.726850000000     0.616650000000     0.169450000000     0.151397   
H51      H      0.702950000000     0.735400000000     0.097400000000     0.13428    
H52      H      0.715350000000     0.762650000000     0.138650000000    -0.0113414  
H53      H      0.710200000000     0.626450000000     0.056550000000     0.144493   
H54      H      0.649550000000     0.650550000000     0.027050000000    -0.0032137  
H55      H      0.565050000000     0.745050000000     0.091250000000    -0.012289   
H56      H      0.626350000000     0.720500000000     0.119900000000     0.132143   
H57      H      0.587350000000     0.844550000000     0.258850000000    -0.0142144  
H58      H      0.503800000000     0.873700000000     0.288900000000     0.133424   
H59      H      0.520950000000     0.778600000000     0.385600000000     0.152199   
H60      H      0.605100000000     0.750500000000     0.355200000000    -0.014309   
H61      H      0.943300000000     0.832850000000     0.304850000000     0.13137    
H62      H      0.880250000000     0.877000000000     0.277400000000    -0.0132013  
H63      H      0.818100000000     0.956400000000     0.353200000000    -0.00861178 
H64      H      0.884300000000     0.915800000000     0.378900000000     0.142733   
C1       C      0.836400000000     0.972400000000     0.454900000000     0.452055   
C2       C      0.887450000000     0.955600000000     0.429400000000    -0.228756   
C3       C      0.919300000000     0.912150000000     0.438050000000     0.174561   
C4       C      0.965950000000     0.896450000000     0.413250000000    -0.282347   
C5       C      0.982150000000     0.923700000000     0.379500000000     0.320354   
C6       C      0.952500000000     0.966550000000     0.370450000000    -0.29588    
C7       C      0.904300000000     0.982950000000     0.395250000000     0.166903   
C8       C      0.563650000000     0.922750000000     0.339250000000     0.31328    
C9       C      0.605000000000     0.901150000000     0.313050000000    -0.27393    
C10      C      0.644500000000     0.915050000000     0.295850000000     0.157021   
C11      C      0.642250000000     0.950600000000     0.306300000000    -0.195253   
C12      C      0.600500000000     0.971000000000     0.333800000000     0.171553   
C13      C      0.561500000000     0.956700000000     0.350600000000    -0.290293   
C14      C      0.684850000000     0.966900000000     0.286300000000     0.427365   
C15      C      0.796400000000     0.544600000000     0.054100000000    -0.223309   
C16      C      0.809900000000     0.581450000000     0.034850000000     0.171558   
C17      C      0.824000000000     0.599000000000     0.052500000000    -0.281952   
C18      C      0.824050000000     0.579850000000     0.091250000000     0.313515   
C19      C      0.812750000000     0.542550000000     0.110050000000    -0.285277   
C20      C      0.798150000000     0.525700000000     0.091700000000     0.179009   
C21      C      0.864900000000     0.621150000000     0.093750000000     0.301082   
C22      C      0.908600000000     0.608750000000     0.064050000000    -0.287116   
C23      C      0.936200000000     0.634500000000     0.048400000000     0.174256   
C24      C      0.922700000000     0.671650000000     0.062350000000    -0.22386    
C25      C      0.880950000000     0.682100000000     0.092600000000     0.172894   
C26      C      0.850700000000     0.657550000000     0.108450000000    -0.270893   
C27      C      0.952450000000     0.700250000000     0.042250000000     0.43902    
C28      C      0.779300000000     0.527150000000     0.034650000000     0.4363     
C29      C      0.763700000000     0.777600000000     0.295100000000     0.45206    
C30      C      0.772450000000     0.794400000000     0.320600000000    -0.228761   
C31      C      0.769500000000     0.837850000000     0.311950000000     0.174565   
C32      C      0.775650000000     0.853550000000     0.336750000000    -0.282351   
C33      C      0.785350000000     0.826300000000     0.370500000000     0.320353   
C34      C      0.789500000000     0.783450000000     0.379550000000    -0.295884   
C35      C      0.782500000000     0.767050000000     0.354750000000     0.166909   
C36      C      0.825650000000     0.827250000000     0.410750000000     0.313282   
C37      C      0.819200000000     0.848850000000     0.436950000000    -0.273931   
C38      C      0.855400000000     0.834950000000     0.454150000000     0.157021   
C39      C      0.899150000000     0.799400000000     0.443700000000    -0.195253   
C40      C      0.905300000000     0.779000000000     0.416200000000     0.171554   
C41      C      0.868800000000     0.793300000000     0.399400000000    -0.290295   
C42      C      0.938050000000     0.783100000000     0.463700000000     0.427365   
C43      C      0.895100000000     0.705400000000     0.195900000000    -0.223304   
C44      C      0.926200000000     0.668550000000     0.215150000000     0.171556   
C45      C      0.975500000000     0.651000000000     0.197500000000    -0.281948   
C46      C      0.995150000000     0.670150000000     0.158750000000     0.313517   
C47      C      0.965350000000     0.707450000000     0.139950000000    -0.285274   
C48      C      0.915550000000     0.724300000000     0.158300000000     0.179006   
C49      C      0.579800000000     0.628850000000     0.156250000000     0.301084   
C50      C      0.581400000000     0.641250000000     0.185950000000    -0.287119   
C51      C      0.619100000000     0.615500000000     0.201600000000     0.17426    
C52      C      0.656700000000     0.578350000000     0.187650000000    -0.223863   
C53      C      0.655650000000     0.567900000000     0.157400000000     0.172898   
C54      C      0.616700000000     0.592450000000     0.141550000000    -0.270895   
C55      C      0.694950000000     0.549750000000     0.207750000000     0.439025   
C56      C      0.841100000000     0.722850000000     0.215350000000     0.436297   
C57      C      0.663600000000     0.527600000000     0.045100000000     0.452057   
C58      C      0.612550000000     0.544400000000     0.070600000000    -0.228757   
C59      C      0.580700000000     0.587850000000     0.061950000000     0.174559   
C60      C      0.534050000000     0.603550000000     0.086750000000    -0.282346   
C61      C      0.517850000000     0.576300000000     0.120500000000     0.320348   
C62      C      0.547500000000     0.533450000000     0.129550000000    -0.295879   
C63      C      0.595700000000     0.517050000000     0.104750000000     0.166903   
C64      C      0.936350000000     0.577250000000     0.160750000000     0.313285   
C65      C      0.895000000000     0.598850000000     0.186950000000    -0.273932   
C66      C      0.855500000000     0.584950000000     0.204150000000     0.157023   
C67      C      0.857750000000     0.549400000000     0.193700000000    -0.195254   
C68      C      0.899500000000     0.529000000000     0.166200000000     0.171556   
C69      C      0.938500000000     0.543300000000     0.149400000000    -0.290296   
C70      C      0.815150000000     0.533100000000     0.213700000000     0.427366   
C71      C      0.703600000000     0.955400000000     0.445900000000    -0.223308   
C72      C      0.690100000000     0.918550000000     0.465150000000     0.171557   
C73      C      0.676000000000     0.901000000000     0.447500000000    -0.281951   
C74      C      0.675950000000     0.920150000000     0.408750000000     0.313515   
C75      C      0.687250000000     0.957450000000     0.389950000000    -0.285277   
C76      C      0.701850000000     0.974300000000     0.408300000000     0.179008   
C77      C      0.635100000000     0.878850000000     0.406250000000     0.301083   
C78      C      0.591400000000     0.891250000000     0.435950000000    -0.287117   
C79      C      0.563800000000     0.865500000000     0.451600000000     0.174258   
C80      C      0.577300000000     0.828350000000     0.437650000000    -0.223861   
C81      C      0.619050000000     0.817900000000     0.407400000000     0.172895   
C82      C      0.649300000000     0.842450000000     0.391550000000    -0.270893   
C83      C      0.547550000000     0.799750000000     0.457750000000     0.439023   
C84      C      0.720700000000     0.972850000000     0.465350000000     0.436299   
C85      C      0.736300000000     0.722400000000     0.204900000000     0.45206    
C86      C      0.727550000000     0.705600000000     0.179400000000    -0.228762   
C87      C      0.730500000000     0.662150000000     0.188050000000     0.174565   
C88      C      0.724350000000     0.646450000000     0.163250000000    -0.282352   
C89      C      0.714650000000     0.673700000000     0.129500000000     0.320353   
C90      C      0.710500000000     0.716550000000     0.120450000000    -0.295885   
C91      C      0.717500000000     0.732950000000     0.145250000000     0.166908   
C92      C      0.674350000000     0.672750000000     0.089250000000     0.313282   
C93      C      0.680800000000     0.651150000000     0.063050000000    -0.273933   
C94      C      0.644600000000     0.665050000000     0.045850000000     0.157023   
C95      C      0.600850000000     0.700600000000     0.056300000000    -0.195256   
C96      C      0.594700000000     0.721000000000     0.083800000000     0.171556   
C97      C      0.631200000000     0.706700000000     0.100600000000    -0.290297   
C98      C      0.561950000000     0.716900000000     0.036300000000     0.427366   
C99      C      0.604900000000     0.794600000000     0.304100000000    -0.223303   
C100     C      0.573800000000     0.831450000000     0.284850000000     0.171552   
C101     C      0.524500000000     0.849000000000     0.302500000000    -0.281946   
C102     C      0.504850000000     0.829850000000     0.341250000000     0.31351    
C103     C      0.534650000000     0.792550000000     0.360050000000    -0.285272   
C104     C      0.584450000000     0.775700000000     0.341700000000     0.179003   
C105     C      0.920200000000     0.871150000000     0.343750000000     0.301088   
C106     C      0.918600000000     0.858750000000     0.314050000000    -0.287122   
C107     C      0.880900000000     0.884500000000     0.298400000000     0.174263   
C108     C      0.843300000000     0.921650000000     0.312350000000    -0.223864   
C109     C      0.844350000000     0.932100000000     0.342600000000     0.1729     
C110     C      0.883300000000     0.907550000000     0.358450000000    -0.270897   
C111     C      0.805050000000     0.950250000000     0.292250000000     0.439026   
C112     C      0.658900000000     0.777150000000     0.284650000000     0.436296   
O1       O      0.823600000000     0.947100000000     0.486300000000    -0.454033   
O2       O      0.809555000000     0.511240000000     0.443850000000    -0.451136   
O3       O      0.528050000000     0.904100000000     0.355300000000    -0.314447   
O4       O      0.682050000000     0.996600000000     0.299200000000    -0.448854   
O5       O      0.718850000000     0.949150000000     0.258650000000    -0.439367   
O6       O      0.779350000000     0.988200000000     0.049000000000    -0.442313   
O7       O      0.834700000000     0.596550000000     0.112250000000    -0.308841   
O8       O      0.989850000000     0.687900000000     0.014000000000    -0.453107   
O9       O      0.938050000000     0.734700000000     0.054300000000    -0.445106   
O10      O      0.766300000000     0.552550000000     0.005350000000    -0.451181   
O11      O      0.757000000000     0.802900000000     0.263700000000    -0.454036   
O12      O      0.764645000000     0.738760000000     0.306150000000    -0.451138   
O13      O      0.787450000000     0.845900000000     0.394700000000    -0.314449   
O14      O      0.977850000000     0.753400000000     0.450800000000    -0.44885    
O15      O      0.926650000000     0.800850000000     0.491350000000    -0.439369   
O16      O      0.816550000000     0.761800000000     0.201000000000    -0.442311   
O17      O      0.543500000000     0.653450000000     0.137750000000    -0.30884    
O18      O      0.691750000000     0.562100000000     0.236000000000    -0.453112   
O19      O      0.727050000000     0.515300000000     0.195700000000    -0.445107   
O20      O      0.824200000000     0.697450000000     0.244650000000    -0.451174   
O21      O      0.676400000000     0.552900000000     0.013700000000    -0.454038   
O22      O      0.690445000000     0.988760000000     0.056150000000    -0.451136   
O23      O      0.971950000000     0.595900000000     0.144700000000    -0.314452   
O24      O      0.817950000000     0.503400000000     0.200800000000    -0.448853   
O25      O      0.781150000000     0.550850000000     0.241350000000    -0.439367   
O26      O      0.720650000000     0.511800000000     0.451000000000    -0.442313   
O27      O      0.665300000000     0.903450000000     0.387750000000    -0.308841   
O28      O      0.510150000000     0.812100000000     0.486000000000    -0.453111   
O29      O      0.561950000000     0.765300000000     0.445700000000    -0.445107   
O30      O      0.733700000000     0.947450000000     0.494650000000    -0.451176   
O31      O      0.743000000000     0.697100000000     0.236300000000    -0.454036   
O32      O      0.735355000000     0.761240000000     0.193850000000    -0.451138   
O33      O      0.712550000000     0.654100000000     0.105300000000    -0.314449   
O34      O      0.522150000000     0.746600000000     0.049200000000    -0.448854   
O35      O      0.573350000000     0.699150000000     0.008650000000    -0.43937    
O36      O      0.683450000000     0.738200000000     0.299000000000    -0.442311   
O37      O      0.956500000000     0.846550000000     0.362250000000    -0.308845   
O38      O      0.808250000000     0.937900000000     0.264000000000    -0.453111   
O39      O      0.772950000000     0.984700000000     0.304300000000    -0.445108   
O40      O      0.675800000000     0.802550000000     0.255350000000    -0.451174   
Cu1      Cu     0.758350000000     0.962140000000     0.524890000000     0.97409    
Cu2      Cu     0.728400000000     0.527880000000     0.773780000000     0.963743   
Cu3      Cu     0.745380000000     0.787860000000     0.725110000000     0.97409    
Cu4      Cu     0.530060000000     0.722120000000     0.976220000000     0.963743   
Cu5      Cu     0.741650000000     0.537860000000     0.975110000000     0.9741     
Cu6      Cu     0.771600000000     0.972120000000     0.726220000000     0.963743   
Cu7      Cu     0.754620000000     0.712140000000     0.774890000000     0.974091   
Cu8      Cu     0.969940000000     0.777880000000     0.523780000000     0.963753   
H1       H      0.908650000000     0.893050000000     0.961450000000    -0.00618961 
H2       H      0.987050000000     0.866650000000     0.919450000000     0.151406   
H3       H      0.964250000000     0.985400000000     0.847400000000     0.134288   
H4       H      0.883350000000     0.512650000000     0.888650000000    -0.0113404  
H5       H      0.606800000000     0.876450000000     0.806550000000     0.144492   
H6       H      0.672850000000     0.900550000000     0.777050000000    -0.00321164 
H7       H      0.598650000000     0.995050000000     0.841250000000    -0.012288   
H8       H      0.533250000000     0.970500000000     0.869900000000     0.132142   
H9       H      0.809250000000     0.594550000000     0.508850000000    -0.0142152  
H10      H      0.833600000000     0.623700000000     0.538900000000     0.133426   
H11      H      0.814850000000     0.528600000000     0.635600000000     0.152201   
H12      H      0.789200000000     0.500500000000     0.605200000000    -0.0143102  
H13      H      0.919000000000     0.582850000000     0.554850000000     0.131368   
H14      H      0.965350000000     0.627000000000     0.527400000000    -0.0131955  
H15      H      0.872300000000     0.706400000000     0.603200000000    -0.00860987 
H16      H      0.821000000000     0.665800000000     0.628900000000     0.142731   
H17      H      0.763150000000     0.856950000000     0.788550000000    -0.00619004 
H18      H      0.773150000000     0.883350000000     0.830550000000     0.151397   
H19      H      0.797050000000     0.764600000000     0.902600000000     0.134281   
H20      H      0.784650000000     0.737350000000     0.861350000000    -0.0113399  
H21      H      0.789800000000     0.873550000000     0.943450000000     0.144492   
H22      H      0.850450000000     0.849450000000     0.972950000000    -0.00321118 
H23      H      0.934950000000     0.754950000000     0.908750000000    -0.0122825  
H24      H      0.873650000000     0.779500000000     0.880100000000     0.132145   
H25      H      0.912650000000     0.655450000000     0.741150000000    -0.0142148  
H26      H      0.996200000000     0.626300000000     0.711100000000     0.133436   
H27      H      0.979050000000     0.721400000000     0.614400000000     0.152207   
H28      H      0.894900000000     0.749500000000     0.644800000000    -0.014311   
H29      H      0.556700000000     0.667150000000     0.695150000000     0.131366   
H30      H      0.619750000000     0.623000000000     0.722600000000    -0.0132022  
H31      H      0.681900000000     0.543600000000     0.646800000000    -0.00861119 
H32      H      0.615700000000     0.584200000000     0.621100000000     0.142732   
H33      H      0.591350000000     0.606950000000     0.538550000000    -0.00618834 
H34      H      0.512950000000     0.633350000000     0.580550000000     0.151395   
H35      H      0.535750000000     0.514600000000     0.652600000000     0.134278   
H36      H      0.616650000000     0.987350000000     0.611350000000    -0.0113394  
H37      H      0.893200000000     0.623550000000     0.693450000000     0.144493   
H38      H      0.827150000000     0.599450000000     0.722950000000    -0.00321174 
H39      H      0.901350000000     0.504950000000     0.658750000000    -0.0122854  
H40      H      0.966750000000     0.529500000000     0.630100000000     0.132149   
H41      H      0.690750000000     0.905450000000     0.991150000000    -0.0142167  
H42      H      0.666400000000     0.876300000000     0.961100000000     0.133425   
H43      H      0.685150000000     0.971400000000     0.864400000000     0.152201   
H44      H      0.710800000000     0.999500000000     0.894800000000    -0.0143109  
H45      H      0.581000000000     0.917150000000     0.945150000000     0.131364   
H46      H      0.534650000000     0.873000000000     0.972600000000    -0.0132025  
H47      H      0.627700000000     0.793600000000     0.896800000000    -0.0086104  
H48      H      0.679000000000     0.834200000000     0.871100000000     0.142731   
H49      H      0.736850000000     0.643050000000     0.711450000000    -0.00619045 
H50      H      0.726850000000     0.616650000000     0.669450000000     0.151397   
H51      H      0.702950000000     0.735400000000     0.597400000000     0.134281   
H52      H      0.715350000000     0.762650000000     0.638650000000    -0.011341   
H53      H      0.710200000000     0.626450000000     0.556550000000     0.144493   
H54      H      0.649550000000     0.650550000000     0.527050000000    -0.00321233 
H55      H      0.565050000000     0.745050000000     0.591250000000    -0.0122885  
H56      H      0.626350000000     0.720500000000     0.619900000000     0.132143   
H57      H      0.587350000000     0.844550000000     0.758850000000    -0.0142143  
H58      H      0.503800000000     0.873700000000     0.788900000000     0.133424   
H59      H      0.520950000000     0.778600000000     0.885600000000     0.152199   
H60      H      0.605100000000     0.750500000000     0.855200000000    -0.0143089  
H61      H      0.943300000000     0.832850000000     0.804850000000     0.131371   
H62      H      0.880250000000     0.877000000000     0.777400000000    -0.0132002  
H63      H      0.818100000000     0.956400000000     0.853200000000    -0.00861135 
H64      H      0.884300000000     0.915800000000     0.878900000000     0.142732   
C1       C      0.836400000000     0.972400000000     0.954900000000     0.452057   
C2       C      0.887450000000     0.955600000000     0.929400000000    -0.22876    
C3       C      0.919300000000     0.912150000000     0.938050000000     0.174568   
C4       C      0.965950000000     0.896450000000     0.913250000000    -0.282355   
C5       C      0.982150000000     0.923700000000     0.879500000000     0.320369   
C6       C      0.952500000000     0.966550000000     0.870450000000    -0.295888   
C7       C      0.904300000000     0.982950000000     0.895250000000     0.16691    
C8       C      0.563650000000     0.922750000000     0.839250000000     0.31328    
C9       C      0.605000000000     0.901150000000     0.813050000000    -0.27393    
C10      C      0.644500000000     0.915050000000     0.795850000000     0.157021   
C11      C      0.642250000000     0.950600000000     0.806300000000    -0.195253   
C12      C      0.600500000000     0.971000000000     0.833800000000     0.171553   
C13      C      0.561500000000     0.956700000000     0.850600000000    -0.290293   
C14      C      0.684850000000     0.966900000000     0.786300000000     0.427365   
C15      C      0.796400000000     0.544600000000     0.554100000000    -0.223307   
C16      C      0.809900000000     0.581450000000     0.534850000000     0.171558   
C17      C      0.824000000000     0.599000000000     0.552500000000    -0.281951   
C18      C      0.824050000000     0.579850000000     0.591250000000     0.313515   
C19      C      0.812750000000     0.542550000000     0.610050000000    -0.285276   
C20      C      0.798150000000     0.525700000000     0.591700000000     0.179009   
C21      C      0.864900000000     0.621150000000     0.593750000000     0.301082   
C22      C      0.908600000000     0.608750000000     0.564050000000    -0.287115   
C23      C      0.936200000000     0.634500000000     0.548400000000     0.174257   
C24      C      0.922700000000     0.671650000000     0.562350000000    -0.223858   
C25      C      0.880950000000     0.682100000000     0.592600000000     0.172894   
C26      C      0.850700000000     0.657550000000     0.608450000000    -0.270892   
C27      C      0.952450000000     0.700250000000     0.542250000000     0.439023   
C28      C      0.779300000000     0.527150000000     0.534650000000     0.4363     
C29      C      0.763700000000     0.777600000000     0.795100000000     0.45206    
C30      C      0.772450000000     0.794400000000     0.820600000000    -0.228761   
C31      C      0.769500000000     0.837850000000     0.811950000000     0.174565   
C32      C      0.775650000000     0.853550000000     0.836750000000    -0.282351   
C33      C      0.785350000000     0.826300000000     0.870500000000     0.320353   
C34      C      0.789500000000     0.783450000000     0.879550000000    -0.295884   
C35      C      0.782500000000     0.767050000000     0.854750000000     0.166909   
C36      C      0.825650000000     0.827250000000     0.910750000000     0.313281   
C37      C      0.819200000000     0.848850000000     0.936950000000    -0.27393    
C38      C      0.855400000000     0.834950000000     0.954150000000     0.15702    
C39      C      0.899150000000     0.799400000000     0.943700000000    -0.19525    
C40      C      0.905300000000     0.779000000000     0.916200000000     0.171553   
C41      C      0.868800000000     0.793300000000     0.899400000000    -0.290293   
C42      C      0.938050000000     0.783100000000     0.963700000000     0.427363   
C43      C      0.895100000000     0.705400000000     0.695900000000    -0.223308   
C44      C      0.926200000000     0.668550000000     0.715150000000     0.171562   
C45      C      0.975500000000     0.651000000000     0.697500000000    -0.281956   
C46      C      0.995150000000     0.670150000000     0.658750000000     0.313532   
C47      C      0.965350000000     0.707450000000     0.639950000000    -0.285282   
C48      C      0.915550000000     0.724300000000     0.658300000000     0.179012   
C49      C      0.579800000000     0.628850000000     0.656250000000     0.301084   
C50      C      0.581400000000     0.641250000000     0.685950000000    -0.287119   
C51      C      0.619100000000     0.615500000000     0.701600000000     0.17426    
C52      C      0.656700000000     0.578350000000     0.687650000000    -0.223863   
C53      C      0.655650000000     0.567900000000     0.657400000000     0.172898   
C54      C      0.616700000000     0.592450000000     0.641550000000    -0.270895   
C55      C      0.694950000000     0.549750000000     0.707750000000     0.439025   
C56      C      0.841100000000     0.722850000000     0.715350000000     0.436298   
C57      C      0.663600000000     0.527600000000     0.545100000000     0.452056   
C58      C      0.612550000000     0.544400000000     0.570600000000    -0.228756   
C59      C      0.580700000000     0.587850000000     0.561950000000     0.174559   
C60      C      0.534050000000     0.603550000000     0.586750000000    -0.282345   
C61      C      0.517850000000     0.576300000000     0.620500000000     0.320347   
C62      C      0.547500000000     0.533450000000     0.629550000000    -0.295878   
C63      C      0.595700000000     0.517050000000     0.604750000000     0.166902   
C64      C      0.936350000000     0.577250000000     0.660750000000     0.313283   
C65      C      0.895000000000     0.598850000000     0.686950000000    -0.273931   
C66      C      0.855500000000     0.584950000000     0.704150000000     0.157022   
C67      C      0.857750000000     0.549400000000     0.693700000000    -0.195253   
C68      C      0.899500000000     0.529000000000     0.666200000000     0.171556   
C69      C      0.938500000000     0.543300000000     0.649400000000    -0.290294   
C70      C      0.815150000000     0.533100000000     0.713700000000     0.427366   
C71      C      0.703600000000     0.955400000000     0.945900000000    -0.223308   
C72      C      0.690100000000     0.918550000000     0.965150000000     0.171557   
C73      C      0.676000000000     0.901000000000     0.947500000000    -0.281952   
C74      C      0.675950000000     0.920150000000     0.908750000000     0.313515   
C75      C      0.687250000000     0.957450000000     0.889950000000    -0.285277   
C76      C      0.701850000000     0.974300000000     0.908300000000     0.179008   
C77      C      0.635100000000     0.878850000000     0.906250000000     0.301083   
C78      C      0.591400000000     0.891250000000     0.935950000000    -0.287117   
C79      C      0.563800000000     0.865500000000     0.951600000000     0.174258   
C80      C      0.577300000000     0.828350000000     0.937650000000    -0.223861   
C81      C      0.619050000000     0.817900000000     0.907400000000     0.172895   
C82      C      0.649300000000     0.842450000000     0.891550000000    -0.270893   
C83      C      0.547550000000     0.799750000000     0.957750000000     0.439024   
C84      C      0.720700000000     0.972850000000     0.965350000000     0.436298   
C85      C      0.736300000000     0.722400000000     0.704900000000     0.45206    
C86      C      0.727550000000     0.705600000000     0.679400000000    -0.228762   
C87      C      0.730500000000     0.662150000000     0.688050000000     0.174565   
C88      C      0.724350000000     0.646450000000     0.663250000000    -0.282352   
C89      C      0.714650000000     0.673700000000     0.629500000000     0.320353   
C90      C      0.710500000000     0.716550000000     0.620450000000    -0.295885   
C91      C      0.717500000000     0.732950000000     0.645250000000     0.166908   
C92      C      0.674350000000     0.672750000000     0.589250000000     0.313282   
C93      C      0.680800000000     0.651150000000     0.563050000000    -0.273932   
C94      C      0.644600000000     0.665050000000     0.545850000000     0.157022   
C95      C      0.600850000000     0.700600000000     0.556300000000    -0.195255   
C96      C      0.594700000000     0.721000000000     0.583800000000     0.171555   
C97      C      0.631200000000     0.706700000000     0.600600000000    -0.290296   
C98      C      0.561950000000     0.716900000000     0.536300000000     0.427366   
C99      C      0.604900000000     0.794600000000     0.804100000000    -0.223303   
C100     C      0.573800000000     0.831450000000     0.784850000000     0.171552   
C101     C      0.524500000000     0.849000000000     0.802500000000    -0.281946   
C102     C      0.504850000000     0.829850000000     0.841250000000     0.31351    
C103     C      0.534650000000     0.792550000000     0.860050000000    -0.285272   
C104     C      0.584450000000     0.775700000000     0.841700000000     0.179003   
C105     C      0.920200000000     0.871150000000     0.843750000000     0.301087   
C106     C      0.918600000000     0.858750000000     0.814050000000    -0.287119   
C107     C      0.880900000000     0.884500000000     0.798400000000     0.174262   
C108     C      0.843300000000     0.921650000000     0.812350000000    -0.223863   
C109     C      0.844350000000     0.932100000000     0.842600000000     0.172899   
C110     C      0.883300000000     0.907550000000     0.858450000000    -0.270896   
C111     C      0.805050000000     0.950250000000     0.792250000000     0.439025   
C112     C      0.658900000000     0.777150000000     0.784650000000     0.436296   
O1       O      0.823600000000     0.947100000000     0.986300000000    -0.45403    
O2       O      0.809555000000     0.511240000000     0.943850000000    -0.451136   
O3       O      0.528050000000     0.904100000000     0.855300000000    -0.314447   
O4       O      0.682050000000     0.996600000000     0.799200000000    -0.448854   
O5       O      0.718850000000     0.949150000000     0.758650000000    -0.439367   
O6       O      0.779350000000     0.988200000000     0.549000000000    -0.442313   
O7       O      0.834700000000     0.596550000000     0.612250000000    -0.308841   
O8       O      0.989850000000     0.687900000000     0.514000000000    -0.453104   
O9       O      0.938050000000     0.734700000000     0.554300000000    -0.445106   
O10      O      0.766300000000     0.552550000000     0.505350000000    -0.451176   
O11      O      0.757000000000     0.802900000000     0.763700000000    -0.454035   
O12      O      0.764645000000     0.738760000000     0.806150000000    -0.451138   
O13      O      0.787450000000     0.845900000000     0.894700000000    -0.314448   
O14      O      0.977850000000     0.753400000000     0.950800000000    -0.44884    
O15      O      0.926650000000     0.800850000000     0.991350000000    -0.439361   
O16      O      0.816550000000     0.761800000000     0.701000000000    -0.442311   
O17      O      0.543500000000     0.653450000000     0.637750000000    -0.30884    
O18      O      0.691750000000     0.562100000000     0.736000000000    -0.453112   
O19      O      0.727050000000     0.515300000000     0.695700000000    -0.445107   
O20      O      0.824200000000     0.697450000000     0.744650000000    -0.451174   
O21      O      0.676400000000     0.552900000000     0.513700000000    -0.454034   
O22      O      0.690445000000     0.988760000000     0.556150000000    -0.451137   
O23      O      0.971950000000     0.595900000000     0.644700000000    -0.314444   
O24      O      0.817950000000     0.503400000000     0.700800000000    -0.448853   
O25      O      0.781150000000     0.550850000000     0.741350000000    -0.439367   
O26      O      0.720650000000     0.511800000000     0.951000000000    -0.442314   
O27      O      0.665300000000     0.903450000000     0.887750000000    -0.308841   
O28      O      0.510150000000     0.812100000000     0.986000000000    -0.453112   
O29      O      0.561950000000     0.765300000000     0.945700000000    -0.445106   
O30      O      0.733700000000     0.947450000000     0.994650000000    -0.451174   
O31      O      0.743000000000     0.697100000000     0.736300000000    -0.454036   
O32      O      0.735355000000     0.761240000000     0.693850000000    -0.451138   
O33      O      0.712550000000     0.654100000000     0.605300000000    -0.314449   
O34      O      0.522150000000     0.746600000000     0.549200000000    -0.448854   
O35      O      0.573350000000     0.699150000000     0.508650000000    -0.439368   
O36      O      0.683450000000     0.738200000000     0.799000000000    -0.442311   
O37      O      0.956500000000     0.846550000000     0.862250000000    -0.308837   
O38      O      0.808250000000     0.937900000000     0.764000000000    -0.453111   
O39      O      0.772950000000     0.984700000000     0.804300000000    -0.445107   
O40      O      0.675800000000     0.802550000000     0.755350000000    -0.451174   


