data_DITYEM_clean

_audit_creation_method RASPA-1.0
_audit_creation_date 2025-1-24
_audit_author_name ''

_cell_length_a    5.2788
_cell_length_b    15.467
_cell_length_c    8.295
_cell_angle_alpha 90
_cell_angle_beta  92.552
_cell_angle_gamma 90
_cell_volume      32476.4

_symmetry_cell_setting          triclinic
_symmetry_space_group_name_Hall 'P 1'
_symmetry_space_group_name_H-M  'P 1'
_symmetry_Int_Tables_number     1

_symmetry_equiv_pos_as_xyz 'x,y,z'

loop_
_atom_site_label
_atom_site_type_symbol
_atom_site_fract_x
_atom_site_fract_y
_atom_site_fract_z
_atom_site_charge
H        H      0.031366666667     0.169400000000     0.224750000000     0          
H        H      0.083516666667     0.197850000000     0.187425000000     0          
H        H      0.121950000000     0.076900000000     0.165025000000     0          
H        H      0.067866666667     0.052200000000     0.201850000000     0          
H        H      0.135300000000     0.169400000000     0.025250000000     0          
H        H      0.083150000000     0.197850000000     0.062575000000     0          
H        H      0.044716666667     0.076900000000     0.084975000000     0          
H        H      0.098800000000     0.052200000000     0.048150000000     0          
H        H      0.135300000000     0.330600000000     0.025250000000     0          
H        H      0.083150000000     0.302150000000     0.062575000000     0          
H        H      0.044716666667     0.423100000000     0.084975000000     0          
H        H      0.098800000000     0.447800000000     0.048150000000     0          
H        H      0.031366666667     0.330600000000     0.224750000000     0          
H        H      0.083516666667     0.302150000000     0.187425000000     0          
H        H      0.121950000000     0.423100000000     0.165025000000     0          
H        H      0.067866666667     0.447800000000     0.201850000000     0          
H        H      0.031366666667     0.169400000000     0.474750000000     0          
H        H      0.083516666667     0.197850000000     0.437425000000     0          
H        H      0.121950000000     0.076900000000     0.415025000000     0          
H        H      0.067866666667     0.052200000000     0.451850000000     0          
H        H      0.135300000000     0.169400000000     0.275250000000     0          
H        H      0.083150000000     0.197850000000     0.312575000000     0          
H        H      0.044716666667     0.076900000000     0.334975000000     0          
H        H      0.098800000000     0.052200000000     0.298150000000     0          
H        H      0.135300000000     0.330600000000     0.275250000000     0          
H        H      0.083150000000     0.302150000000     0.312575000000     0          
H        H      0.044716666667     0.423100000000     0.334975000000     0          
H        H      0.098800000000     0.447800000000     0.298150000000     0          
H        H      0.031366666667     0.330600000000     0.474750000000     0          
H        H      0.083516666667     0.302150000000     0.437425000000     0          
H        H      0.121950000000     0.423100000000     0.415025000000     0          
H        H      0.067866666667     0.447800000000     0.451850000000     0          
H        H      0.031366666667     0.169400000000     0.724750000000     0          
H        H      0.083516666667     0.197850000000     0.687425000000     0          
H        H      0.121950000000     0.076900000000     0.665025000000     0          
H        H      0.067866666667     0.052200000000     0.701850000000     0          
H        H      0.135300000000     0.169400000000     0.525250000000     0          
H        H      0.083150000000     0.197850000000     0.562575000000     0          
H        H      0.044716666667     0.076900000000     0.584975000000     0          
H        H      0.098800000000     0.052200000000     0.548150000000     0          
H        H      0.135300000000     0.330600000000     0.525250000000     0          
H        H      0.083150000000     0.302150000000     0.562575000000     0          
H        H      0.044716666667     0.423100000000     0.584975000000     0          
H        H      0.098800000000     0.447800000000     0.548150000000     0          
H        H      0.031366666667     0.330600000000     0.724750000000     0          
H        H      0.083516666667     0.302150000000     0.687425000000     0          
H        H      0.121950000000     0.423100000000     0.665025000000     0          
H        H      0.067866666667     0.447800000000     0.701850000000     0          
H        H      0.031366666667     0.169400000000     0.974750000000     0          
H        H      0.083516666667     0.197850000000     0.937425000000     0          
H        H      0.121950000000     0.076900000000     0.915025000000     0          
H        H      0.067866666667     0.052200000000     0.951850000000     0          
H        H      0.135300000000     0.169400000000     0.775250000000     0          
H        H      0.083150000000     0.197850000000     0.812575000000     0          
H        H      0.044716666667     0.076900000000     0.834975000000     0          
H        H      0.098800000000     0.052200000000     0.798150000000     0          
H        H      0.135300000000     0.330600000000     0.775250000000     0          
H        H      0.083150000000     0.302150000000     0.812575000000     0          
H        H      0.044716666667     0.423100000000     0.834975000000     0          
H        H      0.098800000000     0.447800000000     0.798150000000     0          
H        H      0.031366666667     0.330600000000     0.974750000000     0          
H        H      0.083516666667     0.302150000000     0.937425000000     0          
H        H      0.121950000000     0.423100000000     0.915025000000     0          
H        H      0.067866666667     0.447800000000     0.951850000000     0          
H        H      0.031366666667     0.669400000000     0.224750000000     0          
H        H      0.083516666667     0.697850000000     0.187425000000     0          
H        H      0.121950000000     0.576900000000     0.165025000000     0          
H        H      0.067866666667     0.552200000000     0.201850000000     0          
H        H      0.135300000000     0.669400000000     0.025250000000     0          
H        H      0.083150000000     0.697850000000     0.062575000000     0          
H        H      0.044716666667     0.576900000000     0.084975000000     0          
H        H      0.098800000000     0.552200000000     0.048150000000     0          
H        H      0.135300000000     0.830600000000     0.025250000000     0          
H        H      0.083150000000     0.802150000000     0.062575000000     0          
H        H      0.044716666667     0.923100000000     0.084975000000     0          
H        H      0.098800000000     0.947800000000     0.048150000000     0          
H        H      0.031366666667     0.830600000000     0.224750000000     0          
H        H      0.083516666667     0.802150000000     0.187425000000     0          
H        H      0.121950000000     0.923100000000     0.165025000000     0          
H        H      0.067866666667     0.947800000000     0.201850000000     0          
H        H      0.031366666667     0.669400000000     0.474750000000     0          
H        H      0.083516666667     0.697850000000     0.437425000000     0          
H        H      0.121950000000     0.576900000000     0.415025000000     0          
H        H      0.067866666667     0.552200000000     0.451850000000     0          
H        H      0.135300000000     0.669400000000     0.275250000000     0          
H        H      0.083150000000     0.697850000000     0.312575000000     0          
H        H      0.044716666667     0.576900000000     0.334975000000     0          
H        H      0.098800000000     0.552200000000     0.298150000000     0          
H        H      0.135300000000     0.830600000000     0.275250000000     0          
H        H      0.083150000000     0.802150000000     0.312575000000     0          
H        H      0.044716666667     0.923100000000     0.334975000000     0          
H        H      0.098800000000     0.947800000000     0.298150000000     0          
H        H      0.031366666667     0.830600000000     0.474750000000     0          
H        H      0.083516666667     0.802150000000     0.437425000000     0          
H        H      0.121950000000     0.923100000000     0.415025000000     0          
H        H      0.067866666667     0.947800000000     0.451850000000     0          
H        H      0.031366666667     0.669400000000     0.724750000000     0          
H        H      0.083516666667     0.697850000000     0.687425000000     0          
H        H      0.121950000000     0.576900000000     0.665025000000     0          
H        H      0.067866666667     0.552200000000     0.701850000000     0          
H        H      0.135300000000     0.669400000000     0.525250000000     0          
H        H      0.083150000000     0.697850000000     0.562575000000     0          
H        H      0.044716666667     0.576900000000     0.584975000000     0          
H        H      0.098800000000     0.552200000000     0.548150000000     0          
H        H      0.135300000000     0.830600000000     0.525250000000     0          
H        H      0.083150000000     0.802150000000     0.562575000000     0          
H        H      0.044716666667     0.923100000000     0.584975000000     0          
H        H      0.098800000000     0.947800000000     0.548150000000     0          
H        H      0.031366666667     0.830600000000     0.724750000000     0          
H        H      0.083516666667     0.802150000000     0.687425000000     0          
H        H      0.121950000000     0.923100000000     0.665025000000     0          
H        H      0.067866666667     0.947800000000     0.701850000000     0          
H        H      0.031366666667     0.669400000000     0.974750000000     0          
H        H      0.083516666667     0.697850000000     0.937425000000     0          
H        H      0.121950000000     0.576900000000     0.915025000000     0          
H        H      0.067866666667     0.552200000000     0.951850000000     0          
H        H      0.135300000000     0.669400000000     0.775250000000     0          
H        H      0.083150000000     0.697850000000     0.812575000000     0          
H        H      0.044716666667     0.576900000000     0.834975000000     0          
H        H      0.098800000000     0.552200000000     0.798150000000     0          
H        H      0.135300000000     0.830600000000     0.775250000000     0          
H        H      0.083150000000     0.802150000000     0.812575000000     0          
H        H      0.044716666667     0.923100000000     0.834975000000     0          
H        H      0.098800000000     0.947800000000     0.798150000000     0          
H        H      0.031366666667     0.830600000000     0.974750000000     0          
H        H      0.083516666667     0.802150000000     0.937425000000     0          
H        H      0.121950000000     0.923100000000     0.915025000000     0          
H        H      0.067866666667     0.947800000000     0.951850000000     0          
H        H      0.198033333333     0.169400000000     0.224750000000     0          
H        H      0.250183333333     0.197850000000     0.187425000000     0          
H        H      0.288616666667     0.076900000000     0.165025000000     0          
H        H      0.234533333333     0.052200000000     0.201850000000     0          
H        H      0.301966666667     0.169400000000     0.025250000000     0          
H        H      0.249816666667     0.197850000000     0.062575000000     0          
H        H      0.211383333333     0.076900000000     0.084975000000     0          
H        H      0.265466666667     0.052200000000     0.048150000000     0          
H        H      0.301966666667     0.330600000000     0.025250000000     0          
H        H      0.249816666667     0.302150000000     0.062575000000     0          
H        H      0.211383333333     0.423100000000     0.084975000000     0          
H        H      0.265466666667     0.447800000000     0.048150000000     0          
H        H      0.198033333333     0.330600000000     0.224750000000     0          
H        H      0.250183333333     0.302150000000     0.187425000000     0          
H        H      0.288616666667     0.423100000000     0.165025000000     0          
H        H      0.234533333333     0.447800000000     0.201850000000     0          
H        H      0.198033333333     0.169400000000     0.474750000000     0          
H        H      0.250183333333     0.197850000000     0.437425000000     0          
H        H      0.288616666667     0.076900000000     0.415025000000     0          
H        H      0.234533333333     0.052200000000     0.451850000000     0          
H        H      0.301966666667     0.169400000000     0.275250000000     0          
H        H      0.249816666667     0.197850000000     0.312575000000     0          
H        H      0.211383333333     0.076900000000     0.334975000000     0          
H        H      0.265466666667     0.052200000000     0.298150000000     0          
H        H      0.301966666667     0.330600000000     0.275250000000     0          
H        H      0.249816666667     0.302150000000     0.312575000000     0          
H        H      0.211383333333     0.423100000000     0.334975000000     0          
H        H      0.265466666667     0.447800000000     0.298150000000     0          
H        H      0.198033333333     0.330600000000     0.474750000000     0          
H        H      0.250183333333     0.302150000000     0.437425000000     0          
H        H      0.288616666667     0.423100000000     0.415025000000     0          
H        H      0.234533333333     0.447800000000     0.451850000000     0          
H        H      0.198033333333     0.169400000000     0.724750000000     0          
H        H      0.250183333333     0.197850000000     0.687425000000     0          
H        H      0.288616666667     0.076900000000     0.665025000000     0          
H        H      0.234533333333     0.052200000000     0.701850000000     0          
H        H      0.301966666667     0.169400000000     0.525250000000     0          
H        H      0.249816666667     0.197850000000     0.562575000000     0          
H        H      0.211383333333     0.076900000000     0.584975000000     0          
H        H      0.265466666667     0.052200000000     0.548150000000     0          
H        H      0.301966666667     0.330600000000     0.525250000000     0          
H        H      0.249816666667     0.302150000000     0.562575000000     0          
H        H      0.211383333333     0.423100000000     0.584975000000     0          
H        H      0.265466666667     0.447800000000     0.548150000000     0          
H        H      0.198033333333     0.330600000000     0.724750000000     0          
H        H      0.250183333333     0.302150000000     0.687425000000     0          
H        H      0.288616666667     0.423100000000     0.665025000000     0          
H        H      0.234533333333     0.447800000000     0.701850000000     0          
H        H      0.198033333333     0.169400000000     0.974750000000     0          
H        H      0.250183333333     0.197850000000     0.937425000000     0          
H        H      0.288616666667     0.076900000000     0.915025000000     0          
H        H      0.234533333333     0.052200000000     0.951850000000     0          
H        H      0.301966666667     0.169400000000     0.775250000000     0          
H        H      0.249816666667     0.197850000000     0.812575000000     0          
H        H      0.211383333333     0.076900000000     0.834975000000     0          
H        H      0.265466666667     0.052200000000     0.798150000000     0          
H        H      0.301966666667     0.330600000000     0.775250000000     0          
H        H      0.249816666667     0.302150000000     0.812575000000     0          
H        H      0.211383333333     0.423100000000     0.834975000000     0          
H        H      0.265466666667     0.447800000000     0.798150000000     0          
H        H      0.198033333333     0.330600000000     0.974750000000     0          
H        H      0.250183333333     0.302150000000     0.937425000000     0          
H        H      0.288616666667     0.423100000000     0.915025000000     0          
H        H      0.234533333333     0.447800000000     0.951850000000     0          
H        H      0.198033333333     0.669400000000     0.224750000000     0          
H        H      0.250183333333     0.697850000000     0.187425000000     0          
H        H      0.288616666667     0.576900000000     0.165025000000     0          
H        H      0.234533333333     0.552200000000     0.201850000000     0          
H        H      0.301966666667     0.669400000000     0.025250000000     0          
H        H      0.249816666667     0.697850000000     0.062575000000     0          
H        H      0.211383333333     0.576900000000     0.084975000000     0          
H        H      0.265466666667     0.552200000000     0.048150000000     0          
H        H      0.301966666667     0.830600000000     0.025250000000     0          
H        H      0.249816666667     0.802150000000     0.062575000000     0          
H        H      0.211383333333     0.923100000000     0.084975000000     0          
H        H      0.265466666667     0.947800000000     0.048150000000     0          
H        H      0.198033333333     0.830600000000     0.224750000000     0          
H        H      0.250183333333     0.802150000000     0.187425000000     0          
H        H      0.288616666667     0.923100000000     0.165025000000     0          
H        H      0.234533333333     0.947800000000     0.201850000000     0          
H        H      0.198033333333     0.669400000000     0.474750000000     0          
H        H      0.250183333333     0.697850000000     0.437425000000     0          
H        H      0.288616666667     0.576900000000     0.415025000000     0          
H        H      0.234533333333     0.552200000000     0.451850000000     0          
H        H      0.301966666667     0.669400000000     0.275250000000     0          
H        H      0.249816666667     0.697850000000     0.312575000000     0          
H        H      0.211383333333     0.576900000000     0.334975000000     0          
H        H      0.265466666667     0.552200000000     0.298150000000     0          
H        H      0.301966666667     0.830600000000     0.275250000000     0          
H        H      0.249816666667     0.802150000000     0.312575000000     0          
H        H      0.211383333333     0.923100000000     0.334975000000     0          
H        H      0.265466666667     0.947800000000     0.298150000000     0          
H        H      0.198033333333     0.830600000000     0.474750000000     0          
H        H      0.250183333333     0.802150000000     0.437425000000     0          
H        H      0.288616666667     0.923100000000     0.415025000000     0          
H        H      0.234533333333     0.947800000000     0.451850000000     0          
H        H      0.198033333333     0.669400000000     0.724750000000     0          
H        H      0.250183333333     0.697850000000     0.687425000000     0          
H        H      0.288616666667     0.576900000000     0.665025000000     0          
H        H      0.234533333333     0.552200000000     0.701850000000     0          
H        H      0.301966666667     0.669400000000     0.525250000000     0          
H        H      0.249816666667     0.697850000000     0.562575000000     0          
H        H      0.211383333333     0.576900000000     0.584975000000     0          
H        H      0.265466666667     0.552200000000     0.548150000000     0          
H        H      0.301966666667     0.830600000000     0.525250000000     0          
H        H      0.249816666667     0.802150000000     0.562575000000     0          
H        H      0.211383333333     0.923100000000     0.584975000000     0          
H        H      0.265466666667     0.947800000000     0.548150000000     0          
H        H      0.198033333333     0.830600000000     0.724750000000     0          
H        H      0.250183333333     0.802150000000     0.687425000000     0          
H        H      0.288616666667     0.923100000000     0.665025000000     0          
H        H      0.234533333333     0.947800000000     0.701850000000     0          
H        H      0.198033333333     0.669400000000     0.974750000000     0          
H        H      0.250183333333     0.697850000000     0.937425000000     0          
H        H      0.288616666667     0.576900000000     0.915025000000     0          
H        H      0.234533333333     0.552200000000     0.951850000000     0          
H        H      0.301966666667     0.669400000000     0.775250000000     0          
H        H      0.249816666667     0.697850000000     0.812575000000     0          
H        H      0.211383333333     0.576900000000     0.834975000000     0          
H        H      0.265466666667     0.552200000000     0.798150000000     0          
H        H      0.301966666667     0.830600000000     0.775250000000     0          
H        H      0.249816666667     0.802150000000     0.812575000000     0          
H        H      0.211383333333     0.923100000000     0.834975000000     0          
H        H      0.265466666667     0.947800000000     0.798150000000     0          
H        H      0.198033333333     0.830600000000     0.974750000000     0          
H        H      0.250183333333     0.802150000000     0.937425000000     0          
H        H      0.288616666667     0.923100000000     0.915025000000     0          
H        H      0.234533333333     0.947800000000     0.951850000000     0          
H        H      0.364700000000     0.169400000000     0.224750000000     0          
H        H      0.416850000000     0.197850000000     0.187425000000     0          
H        H      0.455283333333     0.076900000000     0.165025000000     0          
H        H      0.401200000000     0.052200000000     0.201850000000     0          
H        H      0.468633333333     0.169400000000     0.025250000000     0          
H        H      0.416483333333     0.197850000000     0.062575000000     0          
H        H      0.378050000000     0.076900000000     0.084975000000     0          
H        H      0.432133333333     0.052200000000     0.048150000000     0          
H        H      0.468633333333     0.330600000000     0.025250000000     0          
H        H      0.416483333333     0.302150000000     0.062575000000     0          
H        H      0.378050000000     0.423100000000     0.084975000000     0          
H        H      0.432133333333     0.447800000000     0.048150000000     0          
H        H      0.364700000000     0.330600000000     0.224750000000     0          
H        H      0.416850000000     0.302150000000     0.187425000000     0          
H        H      0.455283333333     0.423100000000     0.165025000000     0          
H        H      0.401200000000     0.447800000000     0.201850000000     0          
H        H      0.364700000000     0.169400000000     0.474750000000     0          
H        H      0.416850000000     0.197850000000     0.437425000000     0          
H        H      0.455283333333     0.076900000000     0.415025000000     0          
H        H      0.401200000000     0.052200000000     0.451850000000     0          
H        H      0.468633333333     0.169400000000     0.275250000000     0          
H        H      0.416483333333     0.197850000000     0.312575000000     0          
H        H      0.378050000000     0.076900000000     0.334975000000     0          
H        H      0.432133333333     0.052200000000     0.298150000000     0          
H        H      0.468633333333     0.330600000000     0.275250000000     0          
H        H      0.416483333333     0.302150000000     0.312575000000     0          
H        H      0.378050000000     0.423100000000     0.334975000000     0          
H        H      0.432133333333     0.447800000000     0.298150000000     0          
H        H      0.364700000000     0.330600000000     0.474750000000     0          
H        H      0.416850000000     0.302150000000     0.437425000000     0          
H        H      0.455283333333     0.423100000000     0.415025000000     0          
H        H      0.401200000000     0.447800000000     0.451850000000     0          
H        H      0.364700000000     0.169400000000     0.724750000000     0          
H        H      0.416850000000     0.197850000000     0.687425000000     0          
H        H      0.455283333333     0.076900000000     0.665025000000     0          
H        H      0.401200000000     0.052200000000     0.701850000000     0          
H        H      0.468633333333     0.169400000000     0.525250000000     0          
H        H      0.416483333333     0.197850000000     0.562575000000     0          
H        H      0.378050000000     0.076900000000     0.584975000000     0          
H        H      0.432133333333     0.052200000000     0.548150000000     0          
H        H      0.468633333333     0.330600000000     0.525250000000     0          
H        H      0.416483333333     0.302150000000     0.562575000000     0          
H        H      0.378050000000     0.423100000000     0.584975000000     0          
H        H      0.432133333333     0.447800000000     0.548150000000     0          
H        H      0.364700000000     0.330600000000     0.724750000000     0          
H        H      0.416850000000     0.302150000000     0.687425000000     0          
H        H      0.455283333333     0.423100000000     0.665025000000     0          
H        H      0.401200000000     0.447800000000     0.701850000000     0          
H        H      0.364700000000     0.169400000000     0.974750000000     0          
H        H      0.416850000000     0.197850000000     0.937425000000     0          
H        H      0.455283333333     0.076900000000     0.915025000000     0          
H        H      0.401200000000     0.052200000000     0.951850000000     0          
H        H      0.468633333333     0.169400000000     0.775250000000     0          
H        H      0.416483333333     0.197850000000     0.812575000000     0          
H        H      0.378050000000     0.076900000000     0.834975000000     0          
H        H      0.432133333333     0.052200000000     0.798150000000     0          
H        H      0.468633333333     0.330600000000     0.775250000000     0          
H        H      0.416483333333     0.302150000000     0.812575000000     0          
H        H      0.378050000000     0.423100000000     0.834975000000     0          
H        H      0.432133333333     0.447800000000     0.798150000000     0          
H        H      0.364700000000     0.330600000000     0.974750000000     0          
H        H      0.416850000000     0.302150000000     0.937425000000     0          
H        H      0.455283333333     0.423100000000     0.915025000000     0          
H        H      0.401200000000     0.447800000000     0.951850000000     0          
H        H      0.364700000000     0.669400000000     0.224750000000     0          
H        H      0.416850000000     0.697850000000     0.187425000000     0          
H        H      0.455283333333     0.576900000000     0.165025000000     0          
H        H      0.401200000000     0.552200000000     0.201850000000     0          
H        H      0.468633333333     0.669400000000     0.025250000000     0          
H        H      0.416483333333     0.697850000000     0.062575000000     0          
H        H      0.378050000000     0.576900000000     0.084975000000     0          
H        H      0.432133333333     0.552200000000     0.048150000000     0          
H        H      0.468633333333     0.830600000000     0.025250000000     0          
H        H      0.416483333333     0.802150000000     0.062575000000     0          
H        H      0.378050000000     0.923100000000     0.084975000000     0          
H        H      0.432133333333     0.947800000000     0.048150000000     0          
H        H      0.364700000000     0.830600000000     0.224750000000     0          
H        H      0.416850000000     0.802150000000     0.187425000000     0          
H        H      0.455283333333     0.923100000000     0.165025000000     0          
H        H      0.401200000000     0.947800000000     0.201850000000     0          
H        H      0.364700000000     0.669400000000     0.474750000000     0          
H        H      0.416850000000     0.697850000000     0.437425000000     0          
H        H      0.455283333333     0.576900000000     0.415025000000     0          
H        H      0.401200000000     0.552200000000     0.451850000000     0          
H        H      0.468633333333     0.669400000000     0.275250000000     0          
H        H      0.416483333333     0.697850000000     0.312575000000     0          
H        H      0.378050000000     0.576900000000     0.334975000000     0          
H        H      0.432133333333     0.552200000000     0.298150000000     0          
H        H      0.468633333333     0.830600000000     0.275250000000     0          
H        H      0.416483333333     0.802150000000     0.312575000000     0          
H        H      0.378050000000     0.923100000000     0.334975000000     0          
H        H      0.432133333333     0.947800000000     0.298150000000     0          
H        H      0.364700000000     0.830600000000     0.474750000000     0          
H        H      0.416850000000     0.802150000000     0.437425000000     0          
H        H      0.455283333333     0.923100000000     0.415025000000     0          
H        H      0.401200000000     0.947800000000     0.451850000000     0          
H        H      0.364700000000     0.669400000000     0.724750000000     0          
H        H      0.416850000000     0.697850000000     0.687425000000     0          
H        H      0.455283333333     0.576900000000     0.665025000000     0          
H        H      0.401200000000     0.552200000000     0.701850000000     0          
H        H      0.468633333333     0.669400000000     0.525250000000     0          
H        H      0.416483333333     0.697850000000     0.562575000000     0          
H        H      0.378050000000     0.576900000000     0.584975000000     0          
H        H      0.432133333333     0.552200000000     0.548150000000     0          
H        H      0.468633333333     0.830600000000     0.525250000000     0          
H        H      0.416483333333     0.802150000000     0.562575000000     0          
H        H      0.378050000000     0.923100000000     0.584975000000     0          
H        H      0.432133333333     0.947800000000     0.548150000000     0          
H        H      0.364700000000     0.830600000000     0.724750000000     0          
H        H      0.416850000000     0.802150000000     0.687425000000     0          
H        H      0.455283333333     0.923100000000     0.665025000000     0          
H        H      0.401200000000     0.947800000000     0.701850000000     0          
H        H      0.364700000000     0.669400000000     0.974750000000     0          
H        H      0.416850000000     0.697850000000     0.937425000000     0          
H        H      0.455283333333     0.576900000000     0.915025000000     0          
H        H      0.401200000000     0.552200000000     0.951850000000     0          
H        H      0.468633333333     0.669400000000     0.775250000000     0          
H        H      0.416483333333     0.697850000000     0.812575000000     0          
H        H      0.378050000000     0.576900000000     0.834975000000     0          
H        H      0.432133333333     0.552200000000     0.798150000000     0          
H        H      0.468633333333     0.830600000000     0.775250000000     0          
H        H      0.416483333333     0.802150000000     0.812575000000     0          
H        H      0.378050000000     0.923100000000     0.834975000000     0          
H        H      0.432133333333     0.947800000000     0.798150000000     0          
H        H      0.364700000000     0.830600000000     0.974750000000     0          
H        H      0.416850000000     0.802150000000     0.937425000000     0          
H        H      0.455283333333     0.923100000000     0.915025000000     0          
H        H      0.401200000000     0.947800000000     0.951850000000     0          
H        H      0.531366666667     0.169400000000     0.224750000000     0          
H        H      0.583516666667     0.197850000000     0.187425000000     0          
H        H      0.621950000000     0.076900000000     0.165025000000     0          
H        H      0.567866666667     0.052200000000     0.201850000000     0          
H        H      0.635300000000     0.169400000000     0.025250000000     0          
H        H      0.583150000000     0.197850000000     0.062575000000     0          
H        H      0.544716666667     0.076900000000     0.084975000000     0          
H        H      0.598800000000     0.052200000000     0.048150000000     0          
H        H      0.635300000000     0.330600000000     0.025250000000     0          
H        H      0.583150000000     0.302150000000     0.062575000000     0          
H        H      0.544716666667     0.423100000000     0.084975000000     0          
H        H      0.598800000000     0.447800000000     0.048150000000     0          
H        H      0.531366666667     0.330600000000     0.224750000000     0          
H        H      0.583516666667     0.302150000000     0.187425000000     0          
H        H      0.621950000000     0.423100000000     0.165025000000     0          
H        H      0.567866666667     0.447800000000     0.201850000000     0          
H        H      0.531366666667     0.169400000000     0.474750000000     0          
H        H      0.583516666667     0.197850000000     0.437425000000     0          
H        H      0.621950000000     0.076900000000     0.415025000000     0          
H        H      0.567866666667     0.052200000000     0.451850000000     0          
H        H      0.635300000000     0.169400000000     0.275250000000     0          
H        H      0.583150000000     0.197850000000     0.312575000000     0          
H        H      0.544716666667     0.076900000000     0.334975000000     0          
H        H      0.598800000000     0.052200000000     0.298150000000     0          
H        H      0.635300000000     0.330600000000     0.275250000000     0          
H        H      0.583150000000     0.302150000000     0.312575000000     0          
H        H      0.544716666667     0.423100000000     0.334975000000     0          
H        H      0.598800000000     0.447800000000     0.298150000000     0          
H        H      0.531366666667     0.330600000000     0.474750000000     0          
H        H      0.583516666667     0.302150000000     0.437425000000     0          
H        H      0.621950000000     0.423100000000     0.415025000000     0          
H        H      0.567866666667     0.447800000000     0.451850000000     0          
H        H      0.531366666667     0.169400000000     0.724750000000     0          
H        H      0.583516666667     0.197850000000     0.687425000000     0          
H        H      0.621950000000     0.076900000000     0.665025000000     0          
H        H      0.567866666667     0.052200000000     0.701850000000     0          
H        H      0.635300000000     0.169400000000     0.525250000000     0          
H        H      0.583150000000     0.197850000000     0.562575000000     0          
H        H      0.544716666667     0.076900000000     0.584975000000     0          
H        H      0.598800000000     0.052200000000     0.548150000000     0          
H        H      0.635300000000     0.330600000000     0.525250000000     0          
H        H      0.583150000000     0.302150000000     0.562575000000     0          
H        H      0.544716666667     0.423100000000     0.584975000000     0          
H        H      0.598800000000     0.447800000000     0.548150000000     0          
H        H      0.531366666667     0.330600000000     0.724750000000     0          
H        H      0.583516666667     0.302150000000     0.687425000000     0          
H        H      0.621950000000     0.423100000000     0.665025000000     0          
H        H      0.567866666667     0.447800000000     0.701850000000     0          
H        H      0.531366666667     0.169400000000     0.974750000000     0          
H        H      0.583516666667     0.197850000000     0.937425000000     0          
H        H      0.621950000000     0.076900000000     0.915025000000     0          
H        H      0.567866666667     0.052200000000     0.951850000000     0          
H        H      0.635300000000     0.169400000000     0.775250000000     0          
H        H      0.583150000000     0.197850000000     0.812575000000     0          
H        H      0.544716666667     0.076900000000     0.834975000000     0          
H        H      0.598800000000     0.052200000000     0.798150000000     0          
H        H      0.635300000000     0.330600000000     0.775250000000     0          
H        H      0.583150000000     0.302150000000     0.812575000000     0          
H        H      0.544716666667     0.423100000000     0.834975000000     0          
H        H      0.598800000000     0.447800000000     0.798150000000     0          
H        H      0.531366666667     0.330600000000     0.974750000000     0          
H        H      0.583516666667     0.302150000000     0.937425000000     0          
H        H      0.621950000000     0.423100000000     0.915025000000     0          
H        H      0.567866666667     0.447800000000     0.951850000000     0          
H        H      0.531366666667     0.669400000000     0.224750000000     0          
H        H      0.583516666667     0.697850000000     0.187425000000     0          
H        H      0.621950000000     0.576900000000     0.165025000000     0          
H        H      0.567866666667     0.552200000000     0.201850000000     0          
H        H      0.635300000000     0.669400000000     0.025250000000     0          
H        H      0.583150000000     0.697850000000     0.062575000000     0          
H        H      0.544716666667     0.576900000000     0.084975000000     0          
H        H      0.598800000000     0.552200000000     0.048150000000     0          
H        H      0.635300000000     0.830600000000     0.025250000000     0          
H        H      0.583150000000     0.802150000000     0.062575000000     0          
H        H      0.544716666667     0.923100000000     0.084975000000     0          
H        H      0.598800000000     0.947800000000     0.048150000000     0          
H        H      0.531366666667     0.830600000000     0.224750000000     0          
H        H      0.583516666667     0.802150000000     0.187425000000     0          
H        H      0.621950000000     0.923100000000     0.165025000000     0          
H        H      0.567866666667     0.947800000000     0.201850000000     0          
H        H      0.531366666667     0.669400000000     0.474750000000     0          
H        H      0.583516666667     0.697850000000     0.437425000000     0          
H        H      0.621950000000     0.576900000000     0.415025000000     0          
H        H      0.567866666667     0.552200000000     0.451850000000     0          
H        H      0.635300000000     0.669400000000     0.275250000000     0          
H        H      0.583150000000     0.697850000000     0.312575000000     0          
H        H      0.544716666667     0.576900000000     0.334975000000     0          
H        H      0.598800000000     0.552200000000     0.298150000000     0          
H        H      0.635300000000     0.830600000000     0.275250000000     0          
H        H      0.583150000000     0.802150000000     0.312575000000     0          
H        H      0.544716666667     0.923100000000     0.334975000000     0          
H        H      0.598800000000     0.947800000000     0.298150000000     0          
H        H      0.531366666667     0.830600000000     0.474750000000     0          
H        H      0.583516666667     0.802150000000     0.437425000000     0          
H        H      0.621950000000     0.923100000000     0.415025000000     0          
H        H      0.567866666667     0.947800000000     0.451850000000     0          
H        H      0.531366666667     0.669400000000     0.724750000000     0          
H        H      0.583516666667     0.697850000000     0.687425000000     0          
H        H      0.621950000000     0.576900000000     0.665025000000     0          
H        H      0.567866666667     0.552200000000     0.701850000000     0          
H        H      0.635300000000     0.669400000000     0.525250000000     0          
H        H      0.583150000000     0.697850000000     0.562575000000     0          
H        H      0.544716666667     0.576900000000     0.584975000000     0          
H        H      0.598800000000     0.552200000000     0.548150000000     0          
H        H      0.635300000000     0.830600000000     0.525250000000     0          
H        H      0.583150000000     0.802150000000     0.562575000000     0          
H        H      0.544716666667     0.923100000000     0.584975000000     0          
H        H      0.598800000000     0.947800000000     0.548150000000     0          
H        H      0.531366666667     0.830600000000     0.724750000000     0          
H        H      0.583516666667     0.802150000000     0.687425000000     0          
H        H      0.621950000000     0.923100000000     0.665025000000     0          
H        H      0.567866666667     0.947800000000     0.701850000000     0          
H        H      0.531366666667     0.669400000000     0.974750000000     0          
H        H      0.583516666667     0.697850000000     0.937425000000     0          
H        H      0.621950000000     0.576900000000     0.915025000000     0          
H        H      0.567866666667     0.552200000000     0.951850000000     0          
H        H      0.635300000000     0.669400000000     0.775250000000     0          
H        H      0.583150000000     0.697850000000     0.812575000000     0          
H        H      0.544716666667     0.576900000000     0.834975000000     0          
H        H      0.598800000000     0.552200000000     0.798150000000     0          
H        H      0.635300000000     0.830600000000     0.775250000000     0          
H        H      0.583150000000     0.802150000000     0.812575000000     0          
H        H      0.544716666667     0.923100000000     0.834975000000     0          
H        H      0.598800000000     0.947800000000     0.798150000000     0          
H        H      0.531366666667     0.830600000000     0.974750000000     0          
H        H      0.583516666667     0.802150000000     0.937425000000     0          
H        H      0.621950000000     0.923100000000     0.915025000000     0          
H        H      0.567866666667     0.947800000000     0.951850000000     0          
H        H      0.698033333333     0.169400000000     0.224750000000     0          
H        H      0.750183333333     0.197850000000     0.187425000000     0          
H        H      0.788616666667     0.076900000000     0.165025000000     0          
H        H      0.734533333333     0.052200000000     0.201850000000     0          
H        H      0.801966666667     0.169400000000     0.025250000000     0          
H        H      0.749816666667     0.197850000000     0.062575000000     0          
H        H      0.711383333333     0.076900000000     0.084975000000     0          
H        H      0.765466666667     0.052200000000     0.048150000000     0          
H        H      0.801966666667     0.330600000000     0.025250000000     0          
H        H      0.749816666667     0.302150000000     0.062575000000     0          
H        H      0.711383333333     0.423100000000     0.084975000000     0          
H        H      0.765466666667     0.447800000000     0.048150000000     0          
H        H      0.698033333333     0.330600000000     0.224750000000     0          
H        H      0.750183333333     0.302150000000     0.187425000000     0          
H        H      0.788616666667     0.423100000000     0.165025000000     0          
H        H      0.734533333333     0.447800000000     0.201850000000     0          
H        H      0.698033333333     0.169400000000     0.474750000000     0          
H        H      0.750183333333     0.197850000000     0.437425000000     0          
H        H      0.788616666667     0.076900000000     0.415025000000     0          
H        H      0.734533333333     0.052200000000     0.451850000000     0          
H        H      0.801966666667     0.169400000000     0.275250000000     0          
H        H      0.749816666667     0.197850000000     0.312575000000     0          
H        H      0.711383333333     0.076900000000     0.334975000000     0          
H        H      0.765466666667     0.052200000000     0.298150000000     0          
H        H      0.801966666667     0.330600000000     0.275250000000     0          
H        H      0.749816666667     0.302150000000     0.312575000000     0          
H        H      0.711383333333     0.423100000000     0.334975000000     0          
H        H      0.765466666667     0.447800000000     0.298150000000     0          
H        H      0.698033333333     0.330600000000     0.474750000000     0          
H        H      0.750183333333     0.302150000000     0.437425000000     0          
H        H      0.788616666667     0.423100000000     0.415025000000     0          
H        H      0.734533333333     0.447800000000     0.451850000000     0          
H        H      0.698033333333     0.169400000000     0.724750000000     0          
H        H      0.750183333333     0.197850000000     0.687425000000     0          
H        H      0.788616666667     0.076900000000     0.665025000000     0          
H        H      0.734533333333     0.052200000000     0.701850000000     0          
H        H      0.801966666667     0.169400000000     0.525250000000     0          
H        H      0.749816666667     0.197850000000     0.562575000000     0          
H        H      0.711383333333     0.076900000000     0.584975000000     0          
H        H      0.765466666667     0.052200000000     0.548150000000     0          
H        H      0.801966666667     0.330600000000     0.525250000000     0          
H        H      0.749816666667     0.302150000000     0.562575000000     0          
H        H      0.711383333333     0.423100000000     0.584975000000     0          
H        H      0.765466666667     0.447800000000     0.548150000000     0          
H        H      0.698033333333     0.330600000000     0.724750000000     0          
H        H      0.750183333333     0.302150000000     0.687425000000     0          
H        H      0.788616666667     0.423100000000     0.665025000000     0          
H        H      0.734533333333     0.447800000000     0.701850000000     0          
H        H      0.698033333333     0.169400000000     0.974750000000     0          
H        H      0.750183333333     0.197850000000     0.937425000000     0          
H        H      0.788616666667     0.076900000000     0.915025000000     0          
H        H      0.734533333333     0.052200000000     0.951850000000     0          
H        H      0.801966666667     0.169400000000     0.775250000000     0          
H        H      0.749816666667     0.197850000000     0.812575000000     0          
H        H      0.711383333333     0.076900000000     0.834975000000     0          
H        H      0.765466666667     0.052200000000     0.798150000000     0          
H        H      0.801966666667     0.330600000000     0.775250000000     0          
H        H      0.749816666667     0.302150000000     0.812575000000     0          
H        H      0.711383333333     0.423100000000     0.834975000000     0          
H        H      0.765466666667     0.447800000000     0.798150000000     0          
H        H      0.698033333333     0.330600000000     0.974750000000     0          
H        H      0.750183333333     0.302150000000     0.937425000000     0          
H        H      0.788616666667     0.423100000000     0.915025000000     0          
H        H      0.734533333333     0.447800000000     0.951850000000     0          
H        H      0.698033333333     0.669400000000     0.224750000000     0          
H        H      0.750183333333     0.697850000000     0.187425000000     0          
H        H      0.788616666667     0.576900000000     0.165025000000     0          
H        H      0.734533333333     0.552200000000     0.201850000000     0          
H        H      0.801966666667     0.669400000000     0.025250000000     0          
H        H      0.749816666667     0.697850000000     0.062575000000     0          
H        H      0.711383333333     0.576900000000     0.084975000000     0          
H        H      0.765466666667     0.552200000000     0.048150000000     0          
H        H      0.801966666667     0.830600000000     0.025250000000     0          
H        H      0.749816666667     0.802150000000     0.062575000000     0          
H        H      0.711383333333     0.923100000000     0.084975000000     0          
H        H      0.765466666667     0.947800000000     0.048150000000     0          
H        H      0.698033333333     0.830600000000     0.224750000000     0          
H        H      0.750183333333     0.802150000000     0.187425000000     0          
H        H      0.788616666667     0.923100000000     0.165025000000     0          
H        H      0.734533333333     0.947800000000     0.201850000000     0          
H        H      0.698033333333     0.669400000000     0.474750000000     0          
H        H      0.750183333333     0.697850000000     0.437425000000     0          
H        H      0.788616666667     0.576900000000     0.415025000000     0          
H        H      0.734533333333     0.552200000000     0.451850000000     0          
H        H      0.801966666667     0.669400000000     0.275250000000     0          
H        H      0.749816666667     0.697850000000     0.312575000000     0          
H        H      0.711383333333     0.576900000000     0.334975000000     0          
H        H      0.765466666667     0.552200000000     0.298150000000     0          
H        H      0.801966666667     0.830600000000     0.275250000000     0          
H        H      0.749816666667     0.802150000000     0.312575000000     0          
H        H      0.711383333333     0.923100000000     0.334975000000     0          
H        H      0.765466666667     0.947800000000     0.298150000000     0          
H        H      0.698033333333     0.830600000000     0.474750000000     0          
H        H      0.750183333333     0.802150000000     0.437425000000     0          
H        H      0.788616666667     0.923100000000     0.415025000000     0          
H        H      0.734533333333     0.947800000000     0.451850000000     0          
H        H      0.698033333333     0.669400000000     0.724750000000     0          
H        H      0.750183333333     0.697850000000     0.687425000000     0          
H        H      0.788616666667     0.576900000000     0.665025000000     0          
H        H      0.734533333333     0.552200000000     0.701850000000     0          
H        H      0.801966666667     0.669400000000     0.525250000000     0          
H        H      0.749816666667     0.697850000000     0.562575000000     0          
H        H      0.711383333333     0.576900000000     0.584975000000     0          
H        H      0.765466666667     0.552200000000     0.548150000000     0          
H        H      0.801966666667     0.830600000000     0.525250000000     0          
H        H      0.749816666667     0.802150000000     0.562575000000     0          
H        H      0.711383333333     0.923100000000     0.584975000000     0          
H        H      0.765466666667     0.947800000000     0.548150000000     0          
H        H      0.698033333333     0.830600000000     0.724750000000     0          
H        H      0.750183333333     0.802150000000     0.687425000000     0          
H        H      0.788616666667     0.923100000000     0.665025000000     0          
H        H      0.734533333333     0.947800000000     0.701850000000     0          
H        H      0.698033333333     0.669400000000     0.974750000000     0          
H        H      0.750183333333     0.697850000000     0.937425000000     0          
H        H      0.788616666667     0.576900000000     0.915025000000     0          
H        H      0.734533333333     0.552200000000     0.951850000000     0          
H        H      0.801966666667     0.669400000000     0.775250000000     0          
H        H      0.749816666667     0.697850000000     0.812575000000     0          
H        H      0.711383333333     0.576900000000     0.834975000000     0          
H        H      0.765466666667     0.552200000000     0.798150000000     0          
H        H      0.801966666667     0.830600000000     0.775250000000     0          
H        H      0.749816666667     0.802150000000     0.812575000000     0          
H        H      0.711383333333     0.923100000000     0.834975000000     0          
H        H      0.765466666667     0.947800000000     0.798150000000     0          
H        H      0.698033333333     0.830600000000     0.974750000000     0          
H        H      0.750183333333     0.802150000000     0.937425000000     0          
H        H      0.788616666667     0.923100000000     0.915025000000     0          
H        H      0.734533333333     0.947800000000     0.951850000000     0          
H        H      0.864700000000     0.169400000000     0.224750000000     0          
H        H      0.916850000000     0.197850000000     0.187425000000     0          
H        H      0.955283333333     0.076900000000     0.165025000000     0          
H        H      0.901200000000     0.052200000000     0.201850000000     0          
H        H      0.968633333333     0.169400000000     0.025250000000     0          
H        H      0.916483333333     0.197850000000     0.062575000000     0          
H        H      0.878050000000     0.076900000000     0.084975000000     0          
H        H      0.932133333333     0.052200000000     0.048150000000     0          
H        H      0.968633333333     0.330600000000     0.025250000000     0          
H        H      0.916483333333     0.302150000000     0.062575000000     0          
H        H      0.878050000000     0.423100000000     0.084975000000     0          
H        H      0.932133333333     0.447800000000     0.048150000000     0          
H        H      0.864700000000     0.330600000000     0.224750000000     0          
H        H      0.916850000000     0.302150000000     0.187425000000     0          
H        H      0.955283333333     0.423100000000     0.165025000000     0          
H        H      0.901200000000     0.447800000000     0.201850000000     0          
H        H      0.864700000000     0.169400000000     0.474750000000     0          
H        H      0.916850000000     0.197850000000     0.437425000000     0          
H        H      0.955283333333     0.076900000000     0.415025000000     0          
H        H      0.901200000000     0.052200000000     0.451850000000     0          
H        H      0.968633333333     0.169400000000     0.275250000000     0          
H        H      0.916483333333     0.197850000000     0.312575000000     0          
H        H      0.878050000000     0.076900000000     0.334975000000     0          
H        H      0.932133333333     0.052200000000     0.298150000000     0          
H        H      0.968633333333     0.330600000000     0.275250000000     0          
H        H      0.916483333333     0.302150000000     0.312575000000     0          
H        H      0.878050000000     0.423100000000     0.334975000000     0          
H        H      0.932133333333     0.447800000000     0.298150000000     0          
H        H      0.864700000000     0.330600000000     0.474750000000     0          
H        H      0.916850000000     0.302150000000     0.437425000000     0          
H        H      0.955283333333     0.423100000000     0.415025000000     0          
H        H      0.901200000000     0.447800000000     0.451850000000     0          
H        H      0.864700000000     0.169400000000     0.724750000000     0          
H        H      0.916850000000     0.197850000000     0.687425000000     0          
H        H      0.955283333333     0.076900000000     0.665025000000     0          
H        H      0.901200000000     0.052200000000     0.701850000000     0          
H        H      0.968633333333     0.169400000000     0.525250000000     0          
H        H      0.916483333333     0.197850000000     0.562575000000     0          
H        H      0.878050000000     0.076900000000     0.584975000000     0          
H        H      0.932133333333     0.052200000000     0.548150000000     0          
H        H      0.968633333333     0.330600000000     0.525250000000     0          
H        H      0.916483333333     0.302150000000     0.562575000000     0          
H        H      0.878050000000     0.423100000000     0.584975000000     0          
H        H      0.932133333333     0.447800000000     0.548150000000     0          
H        H      0.864700000000     0.330600000000     0.724750000000     0          
H        H      0.916850000000     0.302150000000     0.687425000000     0          
H        H      0.955283333333     0.423100000000     0.665025000000     0          
H        H      0.901200000000     0.447800000000     0.701850000000     0          
H        H      0.864700000000     0.169400000000     0.974750000000     0          
H        H      0.916850000000     0.197850000000     0.937425000000     0          
H        H      0.955283333333     0.076900000000     0.915025000000     0          
H        H      0.901200000000     0.052200000000     0.951850000000     0          
H        H      0.968633333333     0.169400000000     0.775250000000     0          
H        H      0.916483333333     0.197850000000     0.812575000000     0          
H        H      0.878050000000     0.076900000000     0.834975000000     0          
H        H      0.932133333333     0.052200000000     0.798150000000     0          
H        H      0.968633333333     0.330600000000     0.775250000000     0          
H        H      0.916483333333     0.302150000000     0.812575000000     0          
H        H      0.878050000000     0.423100000000     0.834975000000     0          
H        H      0.932133333333     0.447800000000     0.798150000000     0          
H        H      0.864700000000     0.330600000000     0.974750000000     0          
H        H      0.916850000000     0.302150000000     0.937425000000     0          
H        H      0.955283333333     0.423100000000     0.915025000000     0          
H        H      0.901200000000     0.447800000000     0.951850000000     0          
H        H      0.864700000000     0.669400000000     0.224750000000     0          
H        H      0.916850000000     0.697850000000     0.187425000000     0          
H        H      0.955283333333     0.576900000000     0.165025000000     0          
H        H      0.901200000000     0.552200000000     0.201850000000     0          
H        H      0.968633333333     0.669400000000     0.025250000000     0          
H        H      0.916483333333     0.697850000000     0.062575000000     0          
H        H      0.878050000000     0.576900000000     0.084975000000     0          
H        H      0.932133333333     0.552200000000     0.048150000000     0          
H        H      0.968633333333     0.830600000000     0.025250000000     0          
H        H      0.916483333333     0.802150000000     0.062575000000     0          
H        H      0.878050000000     0.923100000000     0.084975000000     0          
H        H      0.932133333333     0.947800000000     0.048150000000     0          
H        H      0.864700000000     0.830600000000     0.224750000000     0          
H        H      0.916850000000     0.802150000000     0.187425000000     0          
H        H      0.955283333333     0.923100000000     0.165025000000     0          
H        H      0.901200000000     0.947800000000     0.201850000000     0          
H        H      0.864700000000     0.669400000000     0.474750000000     0          
H        H      0.916850000000     0.697850000000     0.437425000000     0          
H        H      0.955283333333     0.576900000000     0.415025000000     0          
H        H      0.901200000000     0.552200000000     0.451850000000     0          
H        H      0.968633333333     0.669400000000     0.275250000000     0          
H        H      0.916483333333     0.697850000000     0.312575000000     0          
H        H      0.878050000000     0.576900000000     0.334975000000     0          
H        H      0.932133333333     0.552200000000     0.298150000000     0          
H        H      0.968633333333     0.830600000000     0.275250000000     0          
H        H      0.916483333333     0.802150000000     0.312575000000     0          
H        H      0.878050000000     0.923100000000     0.334975000000     0          
H        H      0.932133333333     0.947800000000     0.298150000000     0          
H        H      0.864700000000     0.830600000000     0.474750000000     0          
H        H      0.916850000000     0.802150000000     0.437425000000     0          
H        H      0.955283333333     0.923100000000     0.415025000000     0          
H        H      0.901200000000     0.947800000000     0.451850000000     0          
H        H      0.864700000000     0.669400000000     0.724750000000     0          
H        H      0.916850000000     0.697850000000     0.687425000000     0          
H        H      0.955283333333     0.576900000000     0.665025000000     0          
H        H      0.901200000000     0.552200000000     0.701850000000     0          
H        H      0.968633333333     0.669400000000     0.525250000000     0          
H        H      0.916483333333     0.697850000000     0.562575000000     0          
H        H      0.878050000000     0.576900000000     0.584975000000     0          
H        H      0.932133333333     0.552200000000     0.548150000000     0          
H        H      0.968633333333     0.830600000000     0.525250000000     0          
H        H      0.916483333333     0.802150000000     0.562575000000     0          
H        H      0.878050000000     0.923100000000     0.584975000000     0          
H        H      0.932133333333     0.947800000000     0.548150000000     0          
H        H      0.864700000000     0.830600000000     0.724750000000     0          
H        H      0.916850000000     0.802150000000     0.687425000000     0          
H        H      0.955283333333     0.923100000000     0.665025000000     0          
H        H      0.901200000000     0.947800000000     0.701850000000     0          
H        H      0.864700000000     0.669400000000     0.974750000000     0          
H        H      0.916850000000     0.697850000000     0.937425000000     0          
H        H      0.955283333333     0.576900000000     0.915025000000     0          
H        H      0.901200000000     0.552200000000     0.951850000000     0          
H        H      0.968633333333     0.669400000000     0.775250000000     0          
H        H      0.916483333333     0.697850000000     0.812575000000     0          
H        H      0.878050000000     0.576900000000     0.834975000000     0          
H        H      0.932133333333     0.552200000000     0.798150000000     0          
H        H      0.968633333333     0.830600000000     0.775250000000     0          
H        H      0.916483333333     0.802150000000     0.812575000000     0          
H        H      0.878050000000     0.923100000000     0.834975000000     0          
H        H      0.932133333333     0.947800000000     0.798150000000     0          
H        H      0.864700000000     0.830600000000     0.974750000000     0          
H        H      0.916850000000     0.802150000000     0.937425000000     0          
H        H      0.955283333333     0.923100000000     0.915025000000     0          
H        H      0.901200000000     0.947800000000     0.951850000000     0          
N        N      0.151233333333     0.198240000000     0.138900000000     0          
N        N      0.043783333333     0.108035000000     0.217125000000     0          
N        N      0.015433333333     0.198240000000     0.111100000000     0          
N        N      0.122883333333     0.108035000000     0.032875000000     0          
N        N      0.015433333333     0.301760000000     0.111100000000     0          
N        N      0.122883333333     0.391965000000     0.032875000000     0          
N        N      0.151233333333     0.301760000000     0.138900000000     0          
N        N      0.043783333333     0.391965000000     0.217125000000     0          
N        N      0.162233333333     0.250000000000     0.232950000000     0          
N        N      0.000000000000     0.018800000000     0.000000000000     0          
N        N      0.000000000000     0.129115000000     0.125000000000     0          
N        N      0.000000000000     0.370885000000     0.125000000000     0          
N        N      0.151233333333     0.198240000000     0.388900000000     0          
N        N      0.043783333333     0.108035000000     0.467125000000     0          
N        N      0.015433333333     0.198240000000     0.361100000000     0          
N        N      0.122883333333     0.108035000000     0.282875000000     0          
N        N      0.015433333333     0.301760000000     0.361100000000     0          
N        N      0.122883333333     0.391965000000     0.282875000000     0          
N        N      0.151233333333     0.301760000000     0.388900000000     0          
N        N      0.043783333333     0.391965000000     0.467125000000     0          
N        N      0.162233333333     0.250000000000     0.482950000000     0          
N        N      0.000000000000     0.018800000000     0.250000000000     0          
N        N      0.000000000000     0.129115000000     0.375000000000     0          
N        N      0.000000000000     0.370885000000     0.375000000000     0          
N        N      0.151233333333     0.198240000000     0.638900000000     0          
N        N      0.043783333333     0.108035000000     0.717125000000     0          
N        N      0.015433333333     0.198240000000     0.611100000000     0          
N        N      0.122883333333     0.108035000000     0.532875000000     0          
N        N      0.015433333333     0.301760000000     0.611100000000     0          
N        N      0.122883333333     0.391965000000     0.532875000000     0          
N        N      0.151233333333     0.301760000000     0.638900000000     0          
N        N      0.043783333333     0.391965000000     0.717125000000     0          
N        N      0.162233333333     0.250000000000     0.732950000000     0          
N        N      0.000000000000     0.018800000000     0.500000000000     0          
N        N      0.000000000000     0.129115000000     0.625000000000     0          
N        N      0.000000000000     0.370885000000     0.625000000000     0          
N        N      0.151233333333     0.198240000000     0.888900000000     0          
N        N      0.043783333333     0.108035000000     0.967125000000     0          
N        N      0.015433333333     0.198240000000     0.861100000000     0          
N        N      0.122883333333     0.108035000000     0.782875000000     0          
N        N      0.015433333333     0.301760000000     0.861100000000     0          
N        N      0.122883333333     0.391965000000     0.782875000000     0          
N        N      0.151233333333     0.301760000000     0.888900000000     0          
N        N      0.043783333333     0.391965000000     0.967125000000     0          
N        N      0.162233333333     0.250000000000     0.982950000000     0          
N        N      0.000000000000     0.018800000000     0.750000000000     0          
N        N      0.000000000000     0.129115000000     0.875000000000     0          
N        N      0.000000000000     0.370885000000     0.875000000000     0          
N        N      0.151233333333     0.698240000000     0.138900000000     0          
N        N      0.043783333333     0.608035000000     0.217125000000     0          
N        N      0.015433333333     0.698240000000     0.111100000000     0          
N        N      0.122883333333     0.608035000000     0.032875000000     0          
N        N      0.015433333333     0.801760000000     0.111100000000     0          
N        N      0.122883333333     0.891965000000     0.032875000000     0          
N        N      0.151233333333     0.801760000000     0.138900000000     0          
N        N      0.043783333333     0.891965000000     0.217125000000     0          
N        N      0.162233333333     0.750000000000     0.232950000000     0          
N        N      0.000000000000     0.518800000000     0.000000000000     0          
N        N      0.000000000000     0.629115000000     0.125000000000     0          
N        N      0.000000000000     0.870885000000     0.125000000000     0          
N        N      0.151233333333     0.698240000000     0.388900000000     0          
N        N      0.043783333333     0.608035000000     0.467125000000     0          
N        N      0.015433333333     0.698240000000     0.361100000000     0          
N        N      0.122883333333     0.608035000000     0.282875000000     0          
N        N      0.015433333333     0.801760000000     0.361100000000     0          
N        N      0.122883333333     0.891965000000     0.282875000000     0          
N        N      0.151233333333     0.801760000000     0.388900000000     0          
N        N      0.043783333333     0.891965000000     0.467125000000     0          
N        N      0.162233333333     0.750000000000     0.482950000000     0          
N        N      0.000000000000     0.518800000000     0.250000000000     0          
N        N      0.000000000000     0.629115000000     0.375000000000     0          
N        N      0.000000000000     0.870885000000     0.375000000000     0          
N        N      0.151233333333     0.698240000000     0.638900000000     0          
N        N      0.043783333333     0.608035000000     0.717125000000     0          
N        N      0.015433333333     0.698240000000     0.611100000000     0          
N        N      0.122883333333     0.608035000000     0.532875000000     0          
N        N      0.015433333333     0.801760000000     0.611100000000     0          
N        N      0.122883333333     0.891965000000     0.532875000000     0          
N        N      0.151233333333     0.801760000000     0.638900000000     0          
N        N      0.043783333333     0.891965000000     0.717125000000     0          
N        N      0.162233333333     0.750000000000     0.732950000000     0          
N        N      0.000000000000     0.518800000000     0.500000000000     0          
N        N      0.000000000000     0.629115000000     0.625000000000     0          
N        N      0.000000000000     0.870885000000     0.625000000000     0          
N        N      0.151233333333     0.698240000000     0.888900000000     0          
N        N      0.043783333333     0.608035000000     0.967125000000     0          
N        N      0.015433333333     0.698240000000     0.861100000000     0          
N        N      0.122883333333     0.608035000000     0.782875000000     0          
N        N      0.015433333333     0.801760000000     0.861100000000     0          
N        N      0.122883333333     0.891965000000     0.782875000000     0          
N        N      0.151233333333     0.801760000000     0.888900000000     0          
N        N      0.043783333333     0.891965000000     0.967125000000     0          
N        N      0.162233333333     0.750000000000     0.982950000000     0          
N        N      0.000000000000     0.518800000000     0.750000000000     0          
N        N      0.000000000000     0.629115000000     0.875000000000     0          
N        N      0.000000000000     0.870885000000     0.875000000000     0          
N        N      0.317900000000     0.198240000000     0.138900000000     0          
N        N      0.210450000000     0.108035000000     0.217125000000     0          
N        N      0.182100000000     0.198240000000     0.111100000000     0          
N        N      0.289550000000     0.108035000000     0.032875000000     0          
N        N      0.182100000000     0.301760000000     0.111100000000     0          
N        N      0.289550000000     0.391965000000     0.032875000000     0          
N        N      0.317900000000     0.301760000000     0.138900000000     0          
N        N      0.210450000000     0.391965000000     0.217125000000     0          
N        N      0.328900000000     0.250000000000     0.232950000000     0          
N        N      0.166666666667     0.018800000000     0.000000000000     0          
N        N      0.166666666667     0.129115000000     0.125000000000     0          
N        N      0.166666666667     0.370885000000     0.125000000000     0          
N        N      0.317900000000     0.198240000000     0.388900000000     0          
N        N      0.210450000000     0.108035000000     0.467125000000     0          
N        N      0.182100000000     0.198240000000     0.361100000000     0          
N        N      0.289550000000     0.108035000000     0.282875000000     0          
N        N      0.182100000000     0.301760000000     0.361100000000     0          
N        N      0.289550000000     0.391965000000     0.282875000000     0          
N        N      0.317900000000     0.301760000000     0.388900000000     0          
N        N      0.210450000000     0.391965000000     0.467125000000     0          
N        N      0.328900000000     0.250000000000     0.482950000000     0          
N        N      0.166666666667     0.018800000000     0.250000000000     0          
N        N      0.166666666667     0.129115000000     0.375000000000     0          
N        N      0.166666666667     0.370885000000     0.375000000000     0          
N        N      0.317900000000     0.198240000000     0.638900000000     0          
N        N      0.210450000000     0.108035000000     0.717125000000     0          
N        N      0.182100000000     0.198240000000     0.611100000000     0          
N        N      0.289550000000     0.108035000000     0.532875000000     0          
N        N      0.182100000000     0.301760000000     0.611100000000     0          
N        N      0.289550000000     0.391965000000     0.532875000000     0          
N        N      0.317900000000     0.301760000000     0.638900000000     0          
N        N      0.210450000000     0.391965000000     0.717125000000     0          
N        N      0.328900000000     0.250000000000     0.732950000000     0          
N        N      0.166666666667     0.018800000000     0.500000000000     0          
N        N      0.166666666667     0.129115000000     0.625000000000     0          
N        N      0.166666666667     0.370885000000     0.625000000000     0          
N        N      0.317900000000     0.198240000000     0.888900000000     0          
N        N      0.210450000000     0.108035000000     0.967125000000     0          
N        N      0.182100000000     0.198240000000     0.861100000000     0          
N        N      0.289550000000     0.108035000000     0.782875000000     0          
N        N      0.182100000000     0.301760000000     0.861100000000     0          
N        N      0.289550000000     0.391965000000     0.782875000000     0          
N        N      0.317900000000     0.301760000000     0.888900000000     0          
N        N      0.210450000000     0.391965000000     0.967125000000     0          
N        N      0.328900000000     0.250000000000     0.982950000000     0          
N        N      0.166666666667     0.018800000000     0.750000000000     0          
N        N      0.166666666667     0.129115000000     0.875000000000     0          
N        N      0.166666666667     0.370885000000     0.875000000000     0          
N        N      0.317900000000     0.698240000000     0.138900000000     0          
N        N      0.210450000000     0.608035000000     0.217125000000     0          
N        N      0.182100000000     0.698240000000     0.111100000000     0          
N        N      0.289550000000     0.608035000000     0.032875000000     0          
N        N      0.182100000000     0.801760000000     0.111100000000     0          
N        N      0.289550000000     0.891965000000     0.032875000000     0          
N        N      0.317900000000     0.801760000000     0.138900000000     0          
N        N      0.210450000000     0.891965000000     0.217125000000     0          
N        N      0.328900000000     0.750000000000     0.232950000000     0          
N        N      0.166666666667     0.518800000000     0.000000000000     0          
N        N      0.166666666667     0.629115000000     0.125000000000     0          
N        N      0.166666666667     0.870885000000     0.125000000000     0          
N        N      0.317900000000     0.698240000000     0.388900000000     0          
N        N      0.210450000000     0.608035000000     0.467125000000     0          
N        N      0.182100000000     0.698240000000     0.361100000000     0          
N        N      0.289550000000     0.608035000000     0.282875000000     0          
N        N      0.182100000000     0.801760000000     0.361100000000     0          
N        N      0.289550000000     0.891965000000     0.282875000000     0          
N        N      0.317900000000     0.801760000000     0.388900000000     0          
N        N      0.210450000000     0.891965000000     0.467125000000     0          
N        N      0.328900000000     0.750000000000     0.482950000000     0          
N        N      0.166666666667     0.518800000000     0.250000000000     0          
N        N      0.166666666667     0.629115000000     0.375000000000     0          
N        N      0.166666666667     0.870885000000     0.375000000000     0          
N        N      0.317900000000     0.698240000000     0.638900000000     0          
N        N      0.210450000000     0.608035000000     0.717125000000     0          
N        N      0.182100000000     0.698240000000     0.611100000000     0          
N        N      0.289550000000     0.608035000000     0.532875000000     0          
N        N      0.182100000000     0.801760000000     0.611100000000     0          
N        N      0.289550000000     0.891965000000     0.532875000000     0          
N        N      0.317900000000     0.801760000000     0.638900000000     0          
N        N      0.210450000000     0.891965000000     0.717125000000     0          
N        N      0.328900000000     0.750000000000     0.732950000000     0          
N        N      0.166666666667     0.518800000000     0.500000000000     0          
N        N      0.166666666667     0.629115000000     0.625000000000     0          
N        N      0.166666666667     0.870885000000     0.625000000000     0          
N        N      0.317900000000     0.698240000000     0.888900000000     0          
N        N      0.210450000000     0.608035000000     0.967125000000     0          
N        N      0.182100000000     0.698240000000     0.861100000000     0          
N        N      0.289550000000     0.608035000000     0.782875000000     0          
N        N      0.182100000000     0.801760000000     0.861100000000     0          
N        N      0.289550000000     0.891965000000     0.782875000000     0          
N        N      0.317900000000     0.801760000000     0.888900000000     0          
N        N      0.210450000000     0.891965000000     0.967125000000     0          
N        N      0.328900000000     0.750000000000     0.982950000000     0          
N        N      0.166666666667     0.518800000000     0.750000000000     0          
N        N      0.166666666667     0.629115000000     0.875000000000     0          
N        N      0.166666666667     0.870885000000     0.875000000000     0          
N        N      0.484566666667     0.198240000000     0.138900000000     0          
N        N      0.377116666667     0.108035000000     0.217125000000     0          
N        N      0.348766666667     0.198240000000     0.111100000000     0          
N        N      0.456216666667     0.108035000000     0.032875000000     0          
N        N      0.348766666667     0.301760000000     0.111100000000     0          
N        N      0.456216666667     0.391965000000     0.032875000000     0          
N        N      0.484566666667     0.301760000000     0.138900000000     0          
N        N      0.377116666667     0.391965000000     0.217125000000     0          
N        N      0.495566666667     0.250000000000     0.232950000000     0          
N        N      0.333333333333     0.018800000000     0.000000000000     0          
N        N      0.333333333333     0.129115000000     0.125000000000     0          
N        N      0.333333333333     0.370885000000     0.125000000000     0          
N        N      0.484566666667     0.198240000000     0.388900000000     0          
N        N      0.377116666667     0.108035000000     0.467125000000     0          
N        N      0.348766666667     0.198240000000     0.361100000000     0          
N        N      0.456216666667     0.108035000000     0.282875000000     0          
N        N      0.348766666667     0.301760000000     0.361100000000     0          
N        N      0.456216666667     0.391965000000     0.282875000000     0          
N        N      0.484566666667     0.301760000000     0.388900000000     0          
N        N      0.377116666667     0.391965000000     0.467125000000     0          
N        N      0.495566666667     0.250000000000     0.482950000000     0          
N        N      0.333333333333     0.018800000000     0.250000000000     0          
N        N      0.333333333333     0.129115000000     0.375000000000     0          
N        N      0.333333333333     0.370885000000     0.375000000000     0          
N        N      0.484566666667     0.198240000000     0.638900000000     0          
N        N      0.377116666667     0.108035000000     0.717125000000     0          
N        N      0.348766666667     0.198240000000     0.611100000000     0          
N        N      0.456216666667     0.108035000000     0.532875000000     0          
N        N      0.348766666667     0.301760000000     0.611100000000     0          
N        N      0.456216666667     0.391965000000     0.532875000000     0          
N        N      0.484566666667     0.301760000000     0.638900000000     0          
N        N      0.377116666667     0.391965000000     0.717125000000     0          
N        N      0.495566666667     0.250000000000     0.732950000000     0          
N        N      0.333333333333     0.018800000000     0.500000000000     0          
N        N      0.333333333333     0.129115000000     0.625000000000     0          
N        N      0.333333333333     0.370885000000     0.625000000000     0          
N        N      0.484566666667     0.198240000000     0.888900000000     0          
N        N      0.377116666667     0.108035000000     0.967125000000     0          
N        N      0.348766666667     0.198240000000     0.861100000000     0          
N        N      0.456216666667     0.108035000000     0.782875000000     0          
N        N      0.348766666667     0.301760000000     0.861100000000     0          
N        N      0.456216666667     0.391965000000     0.782875000000     0          
N        N      0.484566666667     0.301760000000     0.888900000000     0          
N        N      0.377116666667     0.391965000000     0.967125000000     0          
N        N      0.495566666667     0.250000000000     0.982950000000     0          
N        N      0.333333333333     0.018800000000     0.750000000000     0          
N        N      0.333333333333     0.129115000000     0.875000000000     0          
N        N      0.333333333333     0.370885000000     0.875000000000     0          
N        N      0.484566666667     0.698240000000     0.138900000000     0          
N        N      0.377116666667     0.608035000000     0.217125000000     0          
N        N      0.348766666667     0.698240000000     0.111100000000     0          
N        N      0.456216666667     0.608035000000     0.032875000000     0          
N        N      0.348766666667     0.801760000000     0.111100000000     0          
N        N      0.456216666667     0.891965000000     0.032875000000     0          
N        N      0.484566666667     0.801760000000     0.138900000000     0          
N        N      0.377116666667     0.891965000000     0.217125000000     0          
N        N      0.495566666667     0.750000000000     0.232950000000     0          
N        N      0.333333333333     0.518800000000     0.000000000000     0          
N        N      0.333333333333     0.629115000000     0.125000000000     0          
N        N      0.333333333333     0.870885000000     0.125000000000     0          
N        N      0.484566666667     0.698240000000     0.388900000000     0          
N        N      0.377116666667     0.608035000000     0.467125000000     0          
N        N      0.348766666667     0.698240000000     0.361100000000     0          
N        N      0.456216666667     0.608035000000     0.282875000000     0          
N        N      0.348766666667     0.801760000000     0.361100000000     0          
N        N      0.456216666667     0.891965000000     0.282875000000     0          
N        N      0.484566666667     0.801760000000     0.388900000000     0          
N        N      0.377116666667     0.891965000000     0.467125000000     0          
N        N      0.495566666667     0.750000000000     0.482950000000     0          
N        N      0.333333333333     0.518800000000     0.250000000000     0          
N        N      0.333333333333     0.629115000000     0.375000000000     0          
N        N      0.333333333333     0.870885000000     0.375000000000     0          
N        N      0.484566666667     0.698240000000     0.638900000000     0          
N        N      0.377116666667     0.608035000000     0.717125000000     0          
N        N      0.348766666667     0.698240000000     0.611100000000     0          
N        N      0.456216666667     0.608035000000     0.532875000000     0          
N        N      0.348766666667     0.801760000000     0.611100000000     0          
N        N      0.456216666667     0.891965000000     0.532875000000     0          
N        N      0.484566666667     0.801760000000     0.638900000000     0          
N        N      0.377116666667     0.891965000000     0.717125000000     0          
N        N      0.495566666667     0.750000000000     0.732950000000     0          
N        N      0.333333333333     0.518800000000     0.500000000000     0          
N        N      0.333333333333     0.629115000000     0.625000000000     0          
N        N      0.333333333333     0.870885000000     0.625000000000     0          
N        N      0.484566666667     0.698240000000     0.888900000000     0          
N        N      0.377116666667     0.608035000000     0.967125000000     0          
N        N      0.348766666667     0.698240000000     0.861100000000     0          
N        N      0.456216666667     0.608035000000     0.782875000000     0          
N        N      0.348766666667     0.801760000000     0.861100000000     0          
N        N      0.456216666667     0.891965000000     0.782875000000     0          
N        N      0.484566666667     0.801760000000     0.888900000000     0          
N        N      0.377116666667     0.891965000000     0.967125000000     0          
N        N      0.495566666667     0.750000000000     0.982950000000     0          
N        N      0.333333333333     0.518800000000     0.750000000000     0          
N        N      0.333333333333     0.629115000000     0.875000000000     0          
N        N      0.333333333333     0.870885000000     0.875000000000     0          
N        N      0.651233333333     0.198240000000     0.138900000000     0          
N        N      0.543783333333     0.108035000000     0.217125000000     0          
N        N      0.515433333333     0.198240000000     0.111100000000     0          
N        N      0.622883333333     0.108035000000     0.032875000000     0          
N        N      0.515433333333     0.301760000000     0.111100000000     0          
N        N      0.622883333333     0.391965000000     0.032875000000     0          
N        N      0.651233333333     0.301760000000     0.138900000000     0          
N        N      0.543783333333     0.391965000000     0.217125000000     0          
N        N      0.662233333333     0.250000000000     0.232950000000     0          
N        N      0.500000000000     0.018800000000     0.000000000000     0          
N        N      0.500000000000     0.129115000000     0.125000000000     0          
N        N      0.500000000000     0.370885000000     0.125000000000     0          
N        N      0.651233333333     0.198240000000     0.388900000000     0          
N        N      0.543783333333     0.108035000000     0.467125000000     0          
N        N      0.515433333333     0.198240000000     0.361100000000     0          
N        N      0.622883333333     0.108035000000     0.282875000000     0          
N        N      0.515433333333     0.301760000000     0.361100000000     0          
N        N      0.622883333333     0.391965000000     0.282875000000     0          
N        N      0.651233333333     0.301760000000     0.388900000000     0          
N        N      0.543783333333     0.391965000000     0.467125000000     0          
N        N      0.662233333333     0.250000000000     0.482950000000     0          
N        N      0.500000000000     0.018800000000     0.250000000000     0          
N        N      0.500000000000     0.129115000000     0.375000000000     0          
N        N      0.500000000000     0.370885000000     0.375000000000     0          
N        N      0.651233333333     0.198240000000     0.638900000000     0          
N        N      0.543783333333     0.108035000000     0.717125000000     0          
N        N      0.515433333333     0.198240000000     0.611100000000     0          
N        N      0.622883333333     0.108035000000     0.532875000000     0          
N        N      0.515433333333     0.301760000000     0.611100000000     0          
N        N      0.622883333333     0.391965000000     0.532875000000     0          
N        N      0.651233333333     0.301760000000     0.638900000000     0          
N        N      0.543783333333     0.391965000000     0.717125000000     0          
N        N      0.662233333333     0.250000000000     0.732950000000     0          
N        N      0.500000000000     0.018800000000     0.500000000000     0          
N        N      0.500000000000     0.129115000000     0.625000000000     0          
N        N      0.500000000000     0.370885000000     0.625000000000     0          
N        N      0.651233333333     0.198240000000     0.888900000000     0          
N        N      0.543783333333     0.108035000000     0.967125000000     0          
N        N      0.515433333333     0.198240000000     0.861100000000     0          
N        N      0.622883333333     0.108035000000     0.782875000000     0          
N        N      0.515433333333     0.301760000000     0.861100000000     0          
N        N      0.622883333333     0.391965000000     0.782875000000     0          
N        N      0.651233333333     0.301760000000     0.888900000000     0          
N        N      0.543783333333     0.391965000000     0.967125000000     0          
N        N      0.662233333333     0.250000000000     0.982950000000     0          
N        N      0.500000000000     0.018800000000     0.750000000000     0          
N        N      0.500000000000     0.129115000000     0.875000000000     0          
N        N      0.500000000000     0.370885000000     0.875000000000     0          
N        N      0.651233333333     0.698240000000     0.138900000000     0          
N        N      0.543783333333     0.608035000000     0.217125000000     0          
N        N      0.515433333333     0.698240000000     0.111100000000     0          
N        N      0.622883333333     0.608035000000     0.032875000000     0          
N        N      0.515433333333     0.801760000000     0.111100000000     0          
N        N      0.622883333333     0.891965000000     0.032875000000     0          
N        N      0.651233333333     0.801760000000     0.138900000000     0          
N        N      0.543783333333     0.891965000000     0.217125000000     0          
N        N      0.662233333333     0.750000000000     0.232950000000     0          
N        N      0.500000000000     0.518800000000     0.000000000000     0          
N        N      0.500000000000     0.629115000000     0.125000000000     0          
N        N      0.500000000000     0.870885000000     0.125000000000     0          
N        N      0.651233333333     0.698240000000     0.388900000000     0          
N        N      0.543783333333     0.608035000000     0.467125000000     0          
N        N      0.515433333333     0.698240000000     0.361100000000     0          
N        N      0.622883333333     0.608035000000     0.282875000000     0          
N        N      0.515433333333     0.801760000000     0.361100000000     0          
N        N      0.622883333333     0.891965000000     0.282875000000     0          
N        N      0.651233333333     0.801760000000     0.388900000000     0          
N        N      0.543783333333     0.891965000000     0.467125000000     0          
N        N      0.662233333333     0.750000000000     0.482950000000     0          
N        N      0.500000000000     0.518800000000     0.250000000000     0          
N        N      0.500000000000     0.629115000000     0.375000000000     0          
N        N      0.500000000000     0.870885000000     0.375000000000     0          
N        N      0.651233333333     0.698240000000     0.638900000000     0          
N        N      0.543783333333     0.608035000000     0.717125000000     0          
N        N      0.515433333333     0.698240000000     0.611100000000     0          
N        N      0.622883333333     0.608035000000     0.532875000000     0          
N        N      0.515433333333     0.801760000000     0.611100000000     0          
N        N      0.622883333333     0.891965000000     0.532875000000     0          
N        N      0.651233333333     0.801760000000     0.638900000000     0          
N        N      0.543783333333     0.891965000000     0.717125000000     0          
N        N      0.662233333333     0.750000000000     0.732950000000     0          
N        N      0.500000000000     0.518800000000     0.500000000000     0          
N        N      0.500000000000     0.629115000000     0.625000000000     0          
N        N      0.500000000000     0.870885000000     0.625000000000     0          
N        N      0.651233333333     0.698240000000     0.888900000000     0          
N        N      0.543783333333     0.608035000000     0.967125000000     0          
N        N      0.515433333333     0.698240000000     0.861100000000     0          
N        N      0.622883333333     0.608035000000     0.782875000000     0          
N        N      0.515433333333     0.801760000000     0.861100000000     0          
N        N      0.622883333333     0.891965000000     0.782875000000     0          
N        N      0.651233333333     0.801760000000     0.888900000000     0          
N        N      0.543783333333     0.891965000000     0.967125000000     0          
N        N      0.662233333333     0.750000000000     0.982950000000     0          
N        N      0.500000000000     0.518800000000     0.750000000000     0          
N        N      0.500000000000     0.629115000000     0.875000000000     0          
N        N      0.500000000000     0.870885000000     0.875000000000     0          
N        N      0.817900000000     0.198240000000     0.138900000000     0          
N        N      0.710450000000     0.108035000000     0.217125000000     0          
N        N      0.682100000000     0.198240000000     0.111100000000     0          
N        N      0.789550000000     0.108035000000     0.032875000000     0          
N        N      0.682100000000     0.301760000000     0.111100000000     0          
N        N      0.789550000000     0.391965000000     0.032875000000     0          
N        N      0.817900000000     0.301760000000     0.138900000000     0          
N        N      0.710450000000     0.391965000000     0.217125000000     0          
N        N      0.828900000000     0.250000000000     0.232950000000     0          
N        N      0.666666666667     0.018800000000     0.000000000000     0          
N        N      0.666666666667     0.129115000000     0.125000000000     0          
N        N      0.666666666667     0.370885000000     0.125000000000     0          
N        N      0.817900000000     0.198240000000     0.388900000000     0          
N        N      0.710450000000     0.108035000000     0.467125000000     0          
N        N      0.682100000000     0.198240000000     0.361100000000     0          
N        N      0.789550000000     0.108035000000     0.282875000000     0          
N        N      0.682100000000     0.301760000000     0.361100000000     0          
N        N      0.789550000000     0.391965000000     0.282875000000     0          
N        N      0.817900000000     0.301760000000     0.388900000000     0          
N        N      0.710450000000     0.391965000000     0.467125000000     0          
N        N      0.828900000000     0.250000000000     0.482950000000     0          
N        N      0.666666666667     0.018800000000     0.250000000000     0          
N        N      0.666666666667     0.129115000000     0.375000000000     0          
N        N      0.666666666667     0.370885000000     0.375000000000     0          
N        N      0.817900000000     0.198240000000     0.638900000000     0          
N        N      0.710450000000     0.108035000000     0.717125000000     0          
N        N      0.682100000000     0.198240000000     0.611100000000     0          
N        N      0.789550000000     0.108035000000     0.532875000000     0          
N        N      0.682100000000     0.301760000000     0.611100000000     0          
N        N      0.789550000000     0.391965000000     0.532875000000     0          
N        N      0.817900000000     0.301760000000     0.638900000000     0          
N        N      0.710450000000     0.391965000000     0.717125000000     0          
N        N      0.828900000000     0.250000000000     0.732950000000     0          
N        N      0.666666666667     0.018800000000     0.500000000000     0          
N        N      0.666666666667     0.129115000000     0.625000000000     0          
N        N      0.666666666667     0.370885000000     0.625000000000     0          
N        N      0.817900000000     0.198240000000     0.888900000000     0          
N        N      0.710450000000     0.108035000000     0.967125000000     0          
N        N      0.682100000000     0.198240000000     0.861100000000     0          
N        N      0.789550000000     0.108035000000     0.782875000000     0          
N        N      0.682100000000     0.301760000000     0.861100000000     0          
N        N      0.789550000000     0.391965000000     0.782875000000     0          
N        N      0.817900000000     0.301760000000     0.888900000000     0          
N        N      0.710450000000     0.391965000000     0.967125000000     0          
N        N      0.828900000000     0.250000000000     0.982950000000     0          
N        N      0.666666666667     0.018800000000     0.750000000000     0          
N        N      0.666666666667     0.129115000000     0.875000000000     0          
N        N      0.666666666667     0.370885000000     0.875000000000     0          
N        N      0.817900000000     0.698240000000     0.138900000000     0          
N        N      0.710450000000     0.608035000000     0.217125000000     0          
N        N      0.682100000000     0.698240000000     0.111100000000     0          
N        N      0.789550000000     0.608035000000     0.032875000000     0          
N        N      0.682100000000     0.801760000000     0.111100000000     0          
N        N      0.789550000000     0.891965000000     0.032875000000     0          
N        N      0.817900000000     0.801760000000     0.138900000000     0          
N        N      0.710450000000     0.891965000000     0.217125000000     0          
N        N      0.828900000000     0.750000000000     0.232950000000     0          
N        N      0.666666666667     0.518800000000     0.000000000000     0          
N        N      0.666666666667     0.629115000000     0.125000000000     0          
N        N      0.666666666667     0.870885000000     0.125000000000     0          
N        N      0.817900000000     0.698240000000     0.388900000000     0          
N        N      0.710450000000     0.608035000000     0.467125000000     0          
N        N      0.682100000000     0.698240000000     0.361100000000     0          
N        N      0.789550000000     0.608035000000     0.282875000000     0          
N        N      0.682100000000     0.801760000000     0.361100000000     0          
N        N      0.789550000000     0.891965000000     0.282875000000     0          
N        N      0.817900000000     0.801760000000     0.388900000000     0          
N        N      0.710450000000     0.891965000000     0.467125000000     0          
N        N      0.828900000000     0.750000000000     0.482950000000     0          
N        N      0.666666666667     0.518800000000     0.250000000000     0          
N        N      0.666666666667     0.629115000000     0.375000000000     0          
N        N      0.666666666667     0.870885000000     0.375000000000     0          
N        N      0.817900000000     0.698240000000     0.638900000000     0          
N        N      0.710450000000     0.608035000000     0.717125000000     0          
N        N      0.682100000000     0.698240000000     0.611100000000     0          
N        N      0.789550000000     0.608035000000     0.532875000000     0          
N        N      0.682100000000     0.801760000000     0.611100000000     0          
N        N      0.789550000000     0.891965000000     0.532875000000     0          
N        N      0.817900000000     0.801760000000     0.638900000000     0          
N        N      0.710450000000     0.891965000000     0.717125000000     0          
N        N      0.828900000000     0.750000000000     0.732950000000     0          
N        N      0.666666666667     0.518800000000     0.500000000000     0          
N        N      0.666666666667     0.629115000000     0.625000000000     0          
N        N      0.666666666667     0.870885000000     0.625000000000     0          
N        N      0.817900000000     0.698240000000     0.888900000000     0          
N        N      0.710450000000     0.608035000000     0.967125000000     0          
N        N      0.682100000000     0.698240000000     0.861100000000     0          
N        N      0.789550000000     0.608035000000     0.782875000000     0          
N        N      0.682100000000     0.801760000000     0.861100000000     0          
N        N      0.789550000000     0.891965000000     0.782875000000     0          
N        N      0.817900000000     0.801760000000     0.888900000000     0          
N        N      0.710450000000     0.891965000000     0.967125000000     0          
N        N      0.828900000000     0.750000000000     0.982950000000     0          
N        N      0.666666666667     0.518800000000     0.750000000000     0          
N        N      0.666666666667     0.629115000000     0.875000000000     0          
N        N      0.666666666667     0.870885000000     0.875000000000     0          
N        N      0.984566666667     0.198240000000     0.138900000000     0          
N        N      0.877116666667     0.108035000000     0.217125000000     0          
N        N      0.848766666667     0.198240000000     0.111100000000     0          
N        N      0.956216666667     0.108035000000     0.032875000000     0          
N        N      0.848766666667     0.301760000000     0.111100000000     0          
N        N      0.956216666667     0.391965000000     0.032875000000     0          
N        N      0.984566666667     0.301760000000     0.138900000000     0          
N        N      0.877116666667     0.391965000000     0.217125000000     0          
N        N      0.995566666667     0.250000000000     0.232950000000     0          
N        N      0.833333333333     0.018800000000     0.000000000000     0          
N        N      0.833333333333     0.129115000000     0.125000000000     0          
N        N      0.833333333333     0.370885000000     0.125000000000     0          
N        N      0.984566666667     0.198240000000     0.388900000000     0          
N        N      0.877116666667     0.108035000000     0.467125000000     0          
N        N      0.848766666667     0.198240000000     0.361100000000     0          
N        N      0.956216666667     0.108035000000     0.282875000000     0          
N        N      0.848766666667     0.301760000000     0.361100000000     0          
N        N      0.956216666667     0.391965000000     0.282875000000     0          
N        N      0.984566666667     0.301760000000     0.388900000000     0          
N        N      0.877116666667     0.391965000000     0.467125000000     0          
N        N      0.995566666667     0.250000000000     0.482950000000     0          
N        N      0.833333333333     0.018800000000     0.250000000000     0          
N        N      0.833333333333     0.129115000000     0.375000000000     0          
N        N      0.833333333333     0.370885000000     0.375000000000     0          
N        N      0.984566666667     0.198240000000     0.638900000000     0          
N        N      0.877116666667     0.108035000000     0.717125000000     0          
N        N      0.848766666667     0.198240000000     0.611100000000     0          
N        N      0.956216666667     0.108035000000     0.532875000000     0          
N        N      0.848766666667     0.301760000000     0.611100000000     0          
N        N      0.956216666667     0.391965000000     0.532875000000     0          
N        N      0.984566666667     0.301760000000     0.638900000000     0          
N        N      0.877116666667     0.391965000000     0.717125000000     0          
N        N      0.995566666667     0.250000000000     0.732950000000     0          
N        N      0.833333333333     0.018800000000     0.500000000000     0          
N        N      0.833333333333     0.129115000000     0.625000000000     0          
N        N      0.833333333333     0.370885000000     0.625000000000     0          
N        N      0.984566666667     0.198240000000     0.888900000000     0          
N        N      0.877116666667     0.108035000000     0.967125000000     0          
N        N      0.848766666667     0.198240000000     0.861100000000     0          
N        N      0.956216666667     0.108035000000     0.782875000000     0          
N        N      0.848766666667     0.301760000000     0.861100000000     0          
N        N      0.956216666667     0.391965000000     0.782875000000     0          
N        N      0.984566666667     0.301760000000     0.888900000000     0          
N        N      0.877116666667     0.391965000000     0.967125000000     0          
N        N      0.995566666667     0.250000000000     0.982950000000     0          
N        N      0.833333333333     0.018800000000     0.750000000000     0          
N        N      0.833333333333     0.129115000000     0.875000000000     0          
N        N      0.833333333333     0.370885000000     0.875000000000     0          
N        N      0.984566666667     0.698240000000     0.138900000000     0          
N        N      0.877116666667     0.608035000000     0.217125000000     0          
N        N      0.848766666667     0.698240000000     0.111100000000     0          
N        N      0.956216666667     0.608035000000     0.032875000000     0          
N        N      0.848766666667     0.801760000000     0.111100000000     0          
N        N      0.956216666667     0.891965000000     0.032875000000     0          
N        N      0.984566666667     0.801760000000     0.138900000000     0          
N        N      0.877116666667     0.891965000000     0.217125000000     0          
N        N      0.995566666667     0.750000000000     0.232950000000     0          
N        N      0.833333333333     0.518800000000     0.000000000000     0          
N        N      0.833333333333     0.629115000000     0.125000000000     0          
N        N      0.833333333333     0.870885000000     0.125000000000     0          
N        N      0.984566666667     0.698240000000     0.388900000000     0          
N        N      0.877116666667     0.608035000000     0.467125000000     0          
N        N      0.848766666667     0.698240000000     0.361100000000     0          
N        N      0.956216666667     0.608035000000     0.282875000000     0          
N        N      0.848766666667     0.801760000000     0.361100000000     0          
N        N      0.956216666667     0.891965000000     0.282875000000     0          
N        N      0.984566666667     0.801760000000     0.388900000000     0          
N        N      0.877116666667     0.891965000000     0.467125000000     0          
N        N      0.995566666667     0.750000000000     0.482950000000     0          
N        N      0.833333333333     0.518800000000     0.250000000000     0          
N        N      0.833333333333     0.629115000000     0.375000000000     0          
N        N      0.833333333333     0.870885000000     0.375000000000     0          
N        N      0.984566666667     0.698240000000     0.638900000000     0          
N        N      0.877116666667     0.608035000000     0.717125000000     0          
N        N      0.848766666667     0.698240000000     0.611100000000     0          
N        N      0.956216666667     0.608035000000     0.532875000000     0          
N        N      0.848766666667     0.801760000000     0.611100000000     0          
N        N      0.956216666667     0.891965000000     0.532875000000     0          
N        N      0.984566666667     0.801760000000     0.638900000000     0          
N        N      0.877116666667     0.891965000000     0.717125000000     0          
N        N      0.995566666667     0.750000000000     0.732950000000     0          
N        N      0.833333333333     0.518800000000     0.500000000000     0          
N        N      0.833333333333     0.629115000000     0.625000000000     0          
N        N      0.833333333333     0.870885000000     0.625000000000     0          
N        N      0.984566666667     0.698240000000     0.888900000000     0          
N        N      0.877116666667     0.608035000000     0.967125000000     0          
N        N      0.848766666667     0.698240000000     0.861100000000     0          
N        N      0.956216666667     0.608035000000     0.782875000000     0          
N        N      0.848766666667     0.801760000000     0.861100000000     0          
N        N      0.956216666667     0.891965000000     0.782875000000     0          
N        N      0.984566666667     0.801760000000     0.888900000000     0          
N        N      0.877116666667     0.891965000000     0.967125000000     0          
N        N      0.995566666667     0.750000000000     0.982950000000     0          
N        N      0.833333333333     0.518800000000     0.750000000000     0          
N        N      0.833333333333     0.629115000000     0.875000000000     0          
N        N      0.833333333333     0.870885000000     0.875000000000     0          
C        C      0.142700000000     0.156155000000     0.145750000000     0          
C        C      0.049616666667     0.150560000000     0.212325000000     0          
C        C      0.081150000000     0.168045000000     0.190025000000     0          
C        C      0.109383333333     0.140935000000     0.171425000000     0          
C        C      0.103783333333     0.096450000000     0.176625000000     0          
C        C      0.071200000000     0.081890000000     0.199025000000     0          
C        C      0.023966666667     0.156155000000     0.104250000000     0          
C        C      0.117050000000     0.150560000000     0.037675000000     0          
C        C      0.085516666667     0.168045000000     0.059975000000     0          
C        C      0.057283333333     0.140935000000     0.078575000000     0          
C        C      0.062883333333     0.096450000000     0.073375000000     0          
C        C      0.095466666667     0.081890000000     0.050975000000     0          
C        C      0.023966666667     0.343845000000     0.104250000000     0          
C        C      0.117050000000     0.349440000000     0.037675000000     0          
C        C      0.085516666667     0.331955000000     0.059975000000     0          
C        C      0.057283333333     0.359065000000     0.078575000000     0          
C        C      0.062883333333     0.403550000000     0.073375000000     0          
C        C      0.095466666667     0.418110000000     0.050975000000     0          
C        C      0.142700000000     0.343845000000     0.145750000000     0          
C        C      0.049616666667     0.349440000000     0.212325000000     0          
C        C      0.081150000000     0.331955000000     0.190025000000     0          
C        C      0.109383333333     0.359065000000     0.171425000000     0          
C        C      0.103783333333     0.403550000000     0.176625000000     0          
C        C      0.071200000000     0.418110000000     0.199025000000     0          
C        C      0.004433333333     0.250000000000     0.017050000000     0          
C        C      0.000000000000     0.481200000000     0.000000000000     0          
C        C      0.142700000000     0.156155000000     0.395750000000     0          
C        C      0.049616666667     0.150560000000     0.462325000000     0          
C        C      0.081150000000     0.168045000000     0.440025000000     0          
C        C      0.109383333333     0.140935000000     0.421425000000     0          
C        C      0.103783333333     0.096450000000     0.426625000000     0          
C        C      0.071200000000     0.081890000000     0.449025000000     0          
C        C      0.023966666667     0.156155000000     0.354250000000     0          
C        C      0.117050000000     0.150560000000     0.287675000000     0          
C        C      0.085516666667     0.168045000000     0.309975000000     0          
C        C      0.057283333333     0.140935000000     0.328575000000     0          
C        C      0.062883333333     0.096450000000     0.323375000000     0          
C        C      0.095466666667     0.081890000000     0.300975000000     0          
C        C      0.023966666667     0.343845000000     0.354250000000     0          
C        C      0.117050000000     0.349440000000     0.287675000000     0          
C        C      0.085516666667     0.331955000000     0.309975000000     0          
C        C      0.057283333333     0.359065000000     0.328575000000     0          
C        C      0.062883333333     0.403550000000     0.323375000000     0          
C        C      0.095466666667     0.418110000000     0.300975000000     0          
C        C      0.142700000000     0.343845000000     0.395750000000     0          
C        C      0.049616666667     0.349440000000     0.462325000000     0          
C        C      0.081150000000     0.331955000000     0.440025000000     0          
C        C      0.109383333333     0.359065000000     0.421425000000     0          
C        C      0.103783333333     0.403550000000     0.426625000000     0          
C        C      0.071200000000     0.418110000000     0.449025000000     0          
C        C      0.004433333333     0.250000000000     0.267050000000     0          
C        C      0.000000000000     0.481200000000     0.250000000000     0          
C        C      0.142700000000     0.156155000000     0.645750000000     0          
C        C      0.049616666667     0.150560000000     0.712325000000     0          
C        C      0.081150000000     0.168045000000     0.690025000000     0          
C        C      0.109383333333     0.140935000000     0.671425000000     0          
C        C      0.103783333333     0.096450000000     0.676625000000     0          
C        C      0.071200000000     0.081890000000     0.699025000000     0          
C        C      0.023966666667     0.156155000000     0.604250000000     0          
C        C      0.117050000000     0.150560000000     0.537675000000     0          
C        C      0.085516666667     0.168045000000     0.559975000000     0          
C        C      0.057283333333     0.140935000000     0.578575000000     0          
C        C      0.062883333333     0.096450000000     0.573375000000     0          
C        C      0.095466666667     0.081890000000     0.550975000000     0          
C        C      0.023966666667     0.343845000000     0.604250000000     0          
C        C      0.117050000000     0.349440000000     0.537675000000     0          
C        C      0.085516666667     0.331955000000     0.559975000000     0          
C        C      0.057283333333     0.359065000000     0.578575000000     0          
C        C      0.062883333333     0.403550000000     0.573375000000     0          
C        C      0.095466666667     0.418110000000     0.550975000000     0          
C        C      0.142700000000     0.343845000000     0.645750000000     0          
C        C      0.049616666667     0.349440000000     0.712325000000     0          
C        C      0.081150000000     0.331955000000     0.690025000000     0          
C        C      0.109383333333     0.359065000000     0.671425000000     0          
C        C      0.103783333333     0.403550000000     0.676625000000     0          
C        C      0.071200000000     0.418110000000     0.699025000000     0          
C        C      0.004433333333     0.250000000000     0.517050000000     0          
C        C      0.000000000000     0.481200000000     0.500000000000     0          
C        C      0.142700000000     0.156155000000     0.895750000000     0          
C        C      0.049616666667     0.150560000000     0.962325000000     0          
C        C      0.081150000000     0.168045000000     0.940025000000     0          
C        C      0.109383333333     0.140935000000     0.921425000000     0          
C        C      0.103783333333     0.096450000000     0.926625000000     0          
C        C      0.071200000000     0.081890000000     0.949025000000     0          
C        C      0.023966666667     0.156155000000     0.854250000000     0          
C        C      0.117050000000     0.150560000000     0.787675000000     0          
C        C      0.085516666667     0.168045000000     0.809975000000     0          
C        C      0.057283333333     0.140935000000     0.828575000000     0          
C        C      0.062883333333     0.096450000000     0.823375000000     0          
C        C      0.095466666667     0.081890000000     0.800975000000     0          
C        C      0.023966666667     0.343845000000     0.854250000000     0          
C        C      0.117050000000     0.349440000000     0.787675000000     0          
C        C      0.085516666667     0.331955000000     0.809975000000     0          
C        C      0.057283333333     0.359065000000     0.828575000000     0          
C        C      0.062883333333     0.403550000000     0.823375000000     0          
C        C      0.095466666667     0.418110000000     0.800975000000     0          
C        C      0.142700000000     0.343845000000     0.895750000000     0          
C        C      0.049616666667     0.349440000000     0.962325000000     0          
C        C      0.081150000000     0.331955000000     0.940025000000     0          
C        C      0.109383333333     0.359065000000     0.921425000000     0          
C        C      0.103783333333     0.403550000000     0.926625000000     0          
C        C      0.071200000000     0.418110000000     0.949025000000     0          
C        C      0.004433333333     0.250000000000     0.767050000000     0          
C        C      0.000000000000     0.481200000000     0.750000000000     0          
C        C      0.142700000000     0.656155000000     0.145750000000     0          
C        C      0.049616666667     0.650560000000     0.212325000000     0          
C        C      0.081150000000     0.668045000000     0.190025000000     0          
C        C      0.109383333333     0.640935000000     0.171425000000     0          
C        C      0.103783333333     0.596450000000     0.176625000000     0          
C        C      0.071200000000     0.581890000000     0.199025000000     0          
C        C      0.023966666667     0.656155000000     0.104250000000     0          
C        C      0.117050000000     0.650560000000     0.037675000000     0          
C        C      0.085516666667     0.668045000000     0.059975000000     0          
C        C      0.057283333333     0.640935000000     0.078575000000     0          
C        C      0.062883333333     0.596450000000     0.073375000000     0          
C        C      0.095466666667     0.581890000000     0.050975000000     0          
C        C      0.023966666667     0.843845000000     0.104250000000     0          
C        C      0.117050000000     0.849440000000     0.037675000000     0          
C        C      0.085516666667     0.831955000000     0.059975000000     0          
C        C      0.057283333333     0.859065000000     0.078575000000     0          
C        C      0.062883333333     0.903550000000     0.073375000000     0          
C        C      0.095466666667     0.918110000000     0.050975000000     0          
C        C      0.142700000000     0.843845000000     0.145750000000     0          
C        C      0.049616666667     0.849440000000     0.212325000000     0          
C        C      0.081150000000     0.831955000000     0.190025000000     0          
C        C      0.109383333333     0.859065000000     0.171425000000     0          
C        C      0.103783333333     0.903550000000     0.176625000000     0          
C        C      0.071200000000     0.918110000000     0.199025000000     0          
C        C      0.004433333333     0.750000000000     0.017050000000     0          
C        C      0.000000000000     0.981200000000     0.000000000000     0          
C        C      0.142700000000     0.656155000000     0.395750000000     0          
C        C      0.049616666667     0.650560000000     0.462325000000     0          
C        C      0.081150000000     0.668045000000     0.440025000000     0          
C        C      0.109383333333     0.640935000000     0.421425000000     0          
C        C      0.103783333333     0.596450000000     0.426625000000     0          
C        C      0.071200000000     0.581890000000     0.449025000000     0          
C        C      0.023966666667     0.656155000000     0.354250000000     0          
C        C      0.117050000000     0.650560000000     0.287675000000     0          
C        C      0.085516666667     0.668045000000     0.309975000000     0          
C        C      0.057283333333     0.640935000000     0.328575000000     0          
C        C      0.062883333333     0.596450000000     0.323375000000     0          
C        C      0.095466666667     0.581890000000     0.300975000000     0          
C        C      0.023966666667     0.843845000000     0.354250000000     0          
C        C      0.117050000000     0.849440000000     0.287675000000     0          
C        C      0.085516666667     0.831955000000     0.309975000000     0          
C        C      0.057283333333     0.859065000000     0.328575000000     0          
C        C      0.062883333333     0.903550000000     0.323375000000     0          
C        C      0.095466666667     0.918110000000     0.300975000000     0          
C        C      0.142700000000     0.843845000000     0.395750000000     0          
C        C      0.049616666667     0.849440000000     0.462325000000     0          
C        C      0.081150000000     0.831955000000     0.440025000000     0          
C        C      0.109383333333     0.859065000000     0.421425000000     0          
C        C      0.103783333333     0.903550000000     0.426625000000     0          
C        C      0.071200000000     0.918110000000     0.449025000000     0          
C        C      0.004433333333     0.750000000000     0.267050000000     0          
C        C      0.000000000000     0.981200000000     0.250000000000     0          
C        C      0.142700000000     0.656155000000     0.645750000000     0          
C        C      0.049616666667     0.650560000000     0.712325000000     0          
C        C      0.081150000000     0.668045000000     0.690025000000     0          
C        C      0.109383333333     0.640935000000     0.671425000000     0          
C        C      0.103783333333     0.596450000000     0.676625000000     0          
C        C      0.071200000000     0.581890000000     0.699025000000     0          
C        C      0.023966666667     0.656155000000     0.604250000000     0          
C        C      0.117050000000     0.650560000000     0.537675000000     0          
C        C      0.085516666667     0.668045000000     0.559975000000     0          
C        C      0.057283333333     0.640935000000     0.578575000000     0          
C        C      0.062883333333     0.596450000000     0.573375000000     0          
C        C      0.095466666667     0.581890000000     0.550975000000     0          
C        C      0.023966666667     0.843845000000     0.604250000000     0          
C        C      0.117050000000     0.849440000000     0.537675000000     0          
C        C      0.085516666667     0.831955000000     0.559975000000     0          
C        C      0.057283333333     0.859065000000     0.578575000000     0          
C        C      0.062883333333     0.903550000000     0.573375000000     0          
C        C      0.095466666667     0.918110000000     0.550975000000     0          
C        C      0.142700000000     0.843845000000     0.645750000000     0          
C        C      0.049616666667     0.849440000000     0.712325000000     0          
C        C      0.081150000000     0.831955000000     0.690025000000     0          
C        C      0.109383333333     0.859065000000     0.671425000000     0          
C        C      0.103783333333     0.903550000000     0.676625000000     0          
C        C      0.071200000000     0.918110000000     0.699025000000     0          
C        C      0.004433333333     0.750000000000     0.517050000000     0          
C        C      0.000000000000     0.981200000000     0.500000000000     0          
C        C      0.142700000000     0.656155000000     0.895750000000     0          
C        C      0.049616666667     0.650560000000     0.962325000000     0          
C        C      0.081150000000     0.668045000000     0.940025000000     0          
C        C      0.109383333333     0.640935000000     0.921425000000     0          
C        C      0.103783333333     0.596450000000     0.926625000000     0          
C        C      0.071200000000     0.581890000000     0.949025000000     0          
C        C      0.023966666667     0.656155000000     0.854250000000     0          
C        C      0.117050000000     0.650560000000     0.787675000000     0          
C        C      0.085516666667     0.668045000000     0.809975000000     0          
C        C      0.057283333333     0.640935000000     0.828575000000     0          
C        C      0.062883333333     0.596450000000     0.823375000000     0          
C        C      0.095466666667     0.581890000000     0.800975000000     0          
C        C      0.023966666667     0.843845000000     0.854250000000     0          
C        C      0.117050000000     0.849440000000     0.787675000000     0          
C        C      0.085516666667     0.831955000000     0.809975000000     0          
C        C      0.057283333333     0.859065000000     0.828575000000     0          
C        C      0.062883333333     0.903550000000     0.823375000000     0          
C        C      0.095466666667     0.918110000000     0.800975000000     0          
C        C      0.142700000000     0.843845000000     0.895750000000     0          
C        C      0.049616666667     0.849440000000     0.962325000000     0          
C        C      0.081150000000     0.831955000000     0.940025000000     0          
C        C      0.109383333333     0.859065000000     0.921425000000     0          
C        C      0.103783333333     0.903550000000     0.926625000000     0          
C        C      0.071200000000     0.918110000000     0.949025000000     0          
C        C      0.004433333333     0.750000000000     0.767050000000     0          
C        C      0.000000000000     0.981200000000     0.750000000000     0          
C        C      0.309366666667     0.156155000000     0.145750000000     0          
C        C      0.216283333333     0.150560000000     0.212325000000     0          
C        C      0.247816666667     0.168045000000     0.190025000000     0          
C        C      0.276050000000     0.140935000000     0.171425000000     0          
C        C      0.270450000000     0.096450000000     0.176625000000     0          
C        C      0.237866666667     0.081890000000     0.199025000000     0          
C        C      0.190633333333     0.156155000000     0.104250000000     0          
C        C      0.283716666667     0.150560000000     0.037675000000     0          
C        C      0.252183333333     0.168045000000     0.059975000000     0          
C        C      0.223950000000     0.140935000000     0.078575000000     0          
C        C      0.229550000000     0.096450000000     0.073375000000     0          
C        C      0.262133333333     0.081890000000     0.050975000000     0          
C        C      0.190633333333     0.343845000000     0.104250000000     0          
C        C      0.283716666667     0.349440000000     0.037675000000     0          
C        C      0.252183333333     0.331955000000     0.059975000000     0          
C        C      0.223950000000     0.359065000000     0.078575000000     0          
C        C      0.229550000000     0.403550000000     0.073375000000     0          
C        C      0.262133333333     0.418110000000     0.050975000000     0          
C        C      0.309366666667     0.343845000000     0.145750000000     0          
C        C      0.216283333333     0.349440000000     0.212325000000     0          
C        C      0.247816666667     0.331955000000     0.190025000000     0          
C        C      0.276050000000     0.359065000000     0.171425000000     0          
C        C      0.270450000000     0.403550000000     0.176625000000     0          
C        C      0.237866666667     0.418110000000     0.199025000000     0          
C        C      0.171100000000     0.250000000000     0.017050000000     0          
C        C      0.166666666667     0.481200000000     0.000000000000     0          
C        C      0.309366666667     0.156155000000     0.395750000000     0          
C        C      0.216283333333     0.150560000000     0.462325000000     0          
C        C      0.247816666667     0.168045000000     0.440025000000     0          
C        C      0.276050000000     0.140935000000     0.421425000000     0          
C        C      0.270450000000     0.096450000000     0.426625000000     0          
C        C      0.237866666667     0.081890000000     0.449025000000     0          
C        C      0.190633333333     0.156155000000     0.354250000000     0          
C        C      0.283716666667     0.150560000000     0.287675000000     0          
C        C      0.252183333333     0.168045000000     0.309975000000     0          
C        C      0.223950000000     0.140935000000     0.328575000000     0          
C        C      0.229550000000     0.096450000000     0.323375000000     0          
C        C      0.262133333333     0.081890000000     0.300975000000     0          
C        C      0.190633333333     0.343845000000     0.354250000000     0          
C        C      0.283716666667     0.349440000000     0.287675000000     0          
C        C      0.252183333333     0.331955000000     0.309975000000     0          
C        C      0.223950000000     0.359065000000     0.328575000000     0          
C        C      0.229550000000     0.403550000000     0.323375000000     0          
C        C      0.262133333333     0.418110000000     0.300975000000     0          
C        C      0.309366666667     0.343845000000     0.395750000000     0          
C        C      0.216283333333     0.349440000000     0.462325000000     0          
C        C      0.247816666667     0.331955000000     0.440025000000     0          
C        C      0.276050000000     0.359065000000     0.421425000000     0          
C        C      0.270450000000     0.403550000000     0.426625000000     0          
C        C      0.237866666667     0.418110000000     0.449025000000     0          
C        C      0.171100000000     0.250000000000     0.267050000000     0          
C        C      0.166666666667     0.481200000000     0.250000000000     0          
C        C      0.309366666667     0.156155000000     0.645750000000     0          
C        C      0.216283333333     0.150560000000     0.712325000000     0          
C        C      0.247816666667     0.168045000000     0.690025000000     0          
C        C      0.276050000000     0.140935000000     0.671425000000     0          
C        C      0.270450000000     0.096450000000     0.676625000000     0          
C        C      0.237866666667     0.081890000000     0.699025000000     0          
C        C      0.190633333333     0.156155000000     0.604250000000     0          
C        C      0.283716666667     0.150560000000     0.537675000000     0          
C        C      0.252183333333     0.168045000000     0.559975000000     0          
C        C      0.223950000000     0.140935000000     0.578575000000     0          
C        C      0.229550000000     0.096450000000     0.573375000000     0          
C        C      0.262133333333     0.081890000000     0.550975000000     0          
C        C      0.190633333333     0.343845000000     0.604250000000     0          
C        C      0.283716666667     0.349440000000     0.537675000000     0          
C        C      0.252183333333     0.331955000000     0.559975000000     0          
C        C      0.223950000000     0.359065000000     0.578575000000     0          
C        C      0.229550000000     0.403550000000     0.573375000000     0          
C        C      0.262133333333     0.418110000000     0.550975000000     0          
C        C      0.309366666667     0.343845000000     0.645750000000     0          
C        C      0.216283333333     0.349440000000     0.712325000000     0          
C        C      0.247816666667     0.331955000000     0.690025000000     0          
C        C      0.276050000000     0.359065000000     0.671425000000     0          
C        C      0.270450000000     0.403550000000     0.676625000000     0          
C        C      0.237866666667     0.418110000000     0.699025000000     0          
C        C      0.171100000000     0.250000000000     0.517050000000     0          
C        C      0.166666666667     0.481200000000     0.500000000000     0          
C        C      0.309366666667     0.156155000000     0.895750000000     0          
C        C      0.216283333333     0.150560000000     0.962325000000     0          
C        C      0.247816666667     0.168045000000     0.940025000000     0          
C        C      0.276050000000     0.140935000000     0.921425000000     0          
C        C      0.270450000000     0.096450000000     0.926625000000     0          
C        C      0.237866666667     0.081890000000     0.949025000000     0          
C        C      0.190633333333     0.156155000000     0.854250000000     0          
C        C      0.283716666667     0.150560000000     0.787675000000     0          
C        C      0.252183333333     0.168045000000     0.809975000000     0          
C        C      0.223950000000     0.140935000000     0.828575000000     0          
C        C      0.229550000000     0.096450000000     0.823375000000     0          
C        C      0.262133333333     0.081890000000     0.800975000000     0          
C        C      0.190633333333     0.343845000000     0.854250000000     0          
C        C      0.283716666667     0.349440000000     0.787675000000     0          
C        C      0.252183333333     0.331955000000     0.809975000000     0          
C        C      0.223950000000     0.359065000000     0.828575000000     0          
C        C      0.229550000000     0.403550000000     0.823375000000     0          
C        C      0.262133333333     0.418110000000     0.800975000000     0          
C        C      0.309366666667     0.343845000000     0.895750000000     0          
C        C      0.216283333333     0.349440000000     0.962325000000     0          
C        C      0.247816666667     0.331955000000     0.940025000000     0          
C        C      0.276050000000     0.359065000000     0.921425000000     0          
C        C      0.270450000000     0.403550000000     0.926625000000     0          
C        C      0.237866666667     0.418110000000     0.949025000000     0          
C        C      0.171100000000     0.250000000000     0.767050000000     0          
C        C      0.166666666667     0.481200000000     0.750000000000     0          
C        C      0.309366666667     0.656155000000     0.145750000000     0          
C        C      0.216283333333     0.650560000000     0.212325000000     0          
C        C      0.247816666667     0.668045000000     0.190025000000     0          
C        C      0.276050000000     0.640935000000     0.171425000000     0          
C        C      0.270450000000     0.596450000000     0.176625000000     0          
C        C      0.237866666667     0.581890000000     0.199025000000     0          
C        C      0.190633333333     0.656155000000     0.104250000000     0          
C        C      0.283716666667     0.650560000000     0.037675000000     0          
C        C      0.252183333333     0.668045000000     0.059975000000     0          
C        C      0.223950000000     0.640935000000     0.078575000000     0          
C        C      0.229550000000     0.596450000000     0.073375000000     0          
C        C      0.262133333333     0.581890000000     0.050975000000     0          
C        C      0.190633333333     0.843845000000     0.104250000000     0          
C        C      0.283716666667     0.849440000000     0.037675000000     0          
C        C      0.252183333333     0.831955000000     0.059975000000     0          
C        C      0.223950000000     0.859065000000     0.078575000000     0          
C        C      0.229550000000     0.903550000000     0.073375000000     0          
C        C      0.262133333333     0.918110000000     0.050975000000     0          
C        C      0.309366666667     0.843845000000     0.145750000000     0          
C        C      0.216283333333     0.849440000000     0.212325000000     0          
C        C      0.247816666667     0.831955000000     0.190025000000     0          
C        C      0.276050000000     0.859065000000     0.171425000000     0          
C        C      0.270450000000     0.903550000000     0.176625000000     0          
C        C      0.237866666667     0.918110000000     0.199025000000     0          
C        C      0.171100000000     0.750000000000     0.017050000000     0          
C        C      0.166666666667     0.981200000000     0.000000000000     0          
C        C      0.309366666667     0.656155000000     0.395750000000     0          
C        C      0.216283333333     0.650560000000     0.462325000000     0          
C        C      0.247816666667     0.668045000000     0.440025000000     0          
C        C      0.276050000000     0.640935000000     0.421425000000     0          
C        C      0.270450000000     0.596450000000     0.426625000000     0          
C        C      0.237866666667     0.581890000000     0.449025000000     0          
C        C      0.190633333333     0.656155000000     0.354250000000     0          
C        C      0.283716666667     0.650560000000     0.287675000000     0          
C        C      0.252183333333     0.668045000000     0.309975000000     0          
C        C      0.223950000000     0.640935000000     0.328575000000     0          
C        C      0.229550000000     0.596450000000     0.323375000000     0          
C        C      0.262133333333     0.581890000000     0.300975000000     0          
C        C      0.190633333333     0.843845000000     0.354250000000     0          
C        C      0.283716666667     0.849440000000     0.287675000000     0          
C        C      0.252183333333     0.831955000000     0.309975000000     0          
C        C      0.223950000000     0.859065000000     0.328575000000     0          
C        C      0.229550000000     0.903550000000     0.323375000000     0          
C        C      0.262133333333     0.918110000000     0.300975000000     0          
C        C      0.309366666667     0.843845000000     0.395750000000     0          
C        C      0.216283333333     0.849440000000     0.462325000000     0          
C        C      0.247816666667     0.831955000000     0.440025000000     0          
C        C      0.276050000000     0.859065000000     0.421425000000     0          
C        C      0.270450000000     0.903550000000     0.426625000000     0          
C        C      0.237866666667     0.918110000000     0.449025000000     0          
C        C      0.171100000000     0.750000000000     0.267050000000     0          
C        C      0.166666666667     0.981200000000     0.250000000000     0          
C        C      0.309366666667     0.656155000000     0.645750000000     0          
C        C      0.216283333333     0.650560000000     0.712325000000     0          
C        C      0.247816666667     0.668045000000     0.690025000000     0          
C        C      0.276050000000     0.640935000000     0.671425000000     0          
C        C      0.270450000000     0.596450000000     0.676625000000     0          
C        C      0.237866666667     0.581890000000     0.699025000000     0          
C        C      0.190633333333     0.656155000000     0.604250000000     0          
C        C      0.283716666667     0.650560000000     0.537675000000     0          
C        C      0.252183333333     0.668045000000     0.559975000000     0          
C        C      0.223950000000     0.640935000000     0.578575000000     0          
C        C      0.229550000000     0.596450000000     0.573375000000     0          
C        C      0.262133333333     0.581890000000     0.550975000000     0          
C        C      0.190633333333     0.843845000000     0.604250000000     0          
C        C      0.283716666667     0.849440000000     0.537675000000     0          
C        C      0.252183333333     0.831955000000     0.559975000000     0          
C        C      0.223950000000     0.859065000000     0.578575000000     0          
C        C      0.229550000000     0.903550000000     0.573375000000     0          
C        C      0.262133333333     0.918110000000     0.550975000000     0          
C        C      0.309366666667     0.843845000000     0.645750000000     0          
C        C      0.216283333333     0.849440000000     0.712325000000     0          
C        C      0.247816666667     0.831955000000     0.690025000000     0          
C        C      0.276050000000     0.859065000000     0.671425000000     0          
C        C      0.270450000000     0.903550000000     0.676625000000     0          
C        C      0.237866666667     0.918110000000     0.699025000000     0          
C        C      0.171100000000     0.750000000000     0.517050000000     0          
C        C      0.166666666667     0.981200000000     0.500000000000     0          
C        C      0.309366666667     0.656155000000     0.895750000000     0          
C        C      0.216283333333     0.650560000000     0.962325000000     0          
C        C      0.247816666667     0.668045000000     0.940025000000     0          
C        C      0.276050000000     0.640935000000     0.921425000000     0          
C        C      0.270450000000     0.596450000000     0.926625000000     0          
C        C      0.237866666667     0.581890000000     0.949025000000     0          
C        C      0.190633333333     0.656155000000     0.854250000000     0          
C        C      0.283716666667     0.650560000000     0.787675000000     0          
C        C      0.252183333333     0.668045000000     0.809975000000     0          
C        C      0.223950000000     0.640935000000     0.828575000000     0          
C        C      0.229550000000     0.596450000000     0.823375000000     0          
C        C      0.262133333333     0.581890000000     0.800975000000     0          
C        C      0.190633333333     0.843845000000     0.854250000000     0          
C        C      0.283716666667     0.849440000000     0.787675000000     0          
C        C      0.252183333333     0.831955000000     0.809975000000     0          
C        C      0.223950000000     0.859065000000     0.828575000000     0          
C        C      0.229550000000     0.903550000000     0.823375000000     0          
C        C      0.262133333333     0.918110000000     0.800975000000     0          
C        C      0.309366666667     0.843845000000     0.895750000000     0          
C        C      0.216283333333     0.849440000000     0.962325000000     0          
C        C      0.247816666667     0.831955000000     0.940025000000     0          
C        C      0.276050000000     0.859065000000     0.921425000000     0          
C        C      0.270450000000     0.903550000000     0.926625000000     0          
C        C      0.237866666667     0.918110000000     0.949025000000     0          
C        C      0.171100000000     0.750000000000     0.767050000000     0          
C        C      0.166666666667     0.981200000000     0.750000000000     0          
C        C      0.476033333333     0.156155000000     0.145750000000     0          
C        C      0.382950000000     0.150560000000     0.212325000000     0          
C        C      0.414483333333     0.168045000000     0.190025000000     0          
C        C      0.442716666667     0.140935000000     0.171425000000     0          
C        C      0.437116666667     0.096450000000     0.176625000000     0          
C        C      0.404533333333     0.081890000000     0.199025000000     0          
C        C      0.357300000000     0.156155000000     0.104250000000     0          
C        C      0.450383333333     0.150560000000     0.037675000000     0          
C        C      0.418850000000     0.168045000000     0.059975000000     0          
C        C      0.390616666667     0.140935000000     0.078575000000     0          
C        C      0.396216666667     0.096450000000     0.073375000000     0          
C        C      0.428800000000     0.081890000000     0.050975000000     0          
C        C      0.357300000000     0.343845000000     0.104250000000     0          
C        C      0.450383333333     0.349440000000     0.037675000000     0          
C        C      0.418850000000     0.331955000000     0.059975000000     0          
C        C      0.390616666667     0.359065000000     0.078575000000     0          
C        C      0.396216666667     0.403550000000     0.073375000000     0          
C        C      0.428800000000     0.418110000000     0.050975000000     0          
C        C      0.476033333333     0.343845000000     0.145750000000     0          
C        C      0.382950000000     0.349440000000     0.212325000000     0          
C        C      0.414483333333     0.331955000000     0.190025000000     0          
C        C      0.442716666667     0.359065000000     0.171425000000     0          
C        C      0.437116666667     0.403550000000     0.176625000000     0          
C        C      0.404533333333     0.418110000000     0.199025000000     0          
C        C      0.337766666667     0.250000000000     0.017050000000     0          
C        C      0.333333333333     0.481200000000     0.000000000000     0          
C        C      0.476033333333     0.156155000000     0.395750000000     0          
C        C      0.382950000000     0.150560000000     0.462325000000     0          
C        C      0.414483333333     0.168045000000     0.440025000000     0          
C        C      0.442716666667     0.140935000000     0.421425000000     0          
C        C      0.437116666667     0.096450000000     0.426625000000     0          
C        C      0.404533333333     0.081890000000     0.449025000000     0          
C        C      0.357300000000     0.156155000000     0.354250000000     0          
C        C      0.450383333333     0.150560000000     0.287675000000     0          
C        C      0.418850000000     0.168045000000     0.309975000000     0          
C        C      0.390616666667     0.140935000000     0.328575000000     0          
C        C      0.396216666667     0.096450000000     0.323375000000     0          
C        C      0.428800000000     0.081890000000     0.300975000000     0          
C        C      0.357300000000     0.343845000000     0.354250000000     0          
C        C      0.450383333333     0.349440000000     0.287675000000     0          
C        C      0.418850000000     0.331955000000     0.309975000000     0          
C        C      0.390616666667     0.359065000000     0.328575000000     0          
C        C      0.396216666667     0.403550000000     0.323375000000     0          
C        C      0.428800000000     0.418110000000     0.300975000000     0          
C        C      0.476033333333     0.343845000000     0.395750000000     0          
C        C      0.382950000000     0.349440000000     0.462325000000     0          
C        C      0.414483333333     0.331955000000     0.440025000000     0          
C        C      0.442716666667     0.359065000000     0.421425000000     0          
C        C      0.437116666667     0.403550000000     0.426625000000     0          
C        C      0.404533333333     0.418110000000     0.449025000000     0          
C        C      0.337766666667     0.250000000000     0.267050000000     0          
C        C      0.333333333333     0.481200000000     0.250000000000     0          
C        C      0.476033333333     0.156155000000     0.645750000000     0          
C        C      0.382950000000     0.150560000000     0.712325000000     0          
C        C      0.414483333333     0.168045000000     0.690025000000     0          
C        C      0.442716666667     0.140935000000     0.671425000000     0          
C        C      0.437116666667     0.096450000000     0.676625000000     0          
C        C      0.404533333333     0.081890000000     0.699025000000     0          
C        C      0.357300000000     0.156155000000     0.604250000000     0          
C        C      0.450383333333     0.150560000000     0.537675000000     0          
C        C      0.418850000000     0.168045000000     0.559975000000     0          
C        C      0.390616666667     0.140935000000     0.578575000000     0          
C        C      0.396216666667     0.096450000000     0.573375000000     0          
C        C      0.428800000000     0.081890000000     0.550975000000     0          
C        C      0.357300000000     0.343845000000     0.604250000000     0          
C        C      0.450383333333     0.349440000000     0.537675000000     0          
C        C      0.418850000000     0.331955000000     0.559975000000     0          
C        C      0.390616666667     0.359065000000     0.578575000000     0          
C        C      0.396216666667     0.403550000000     0.573375000000     0          
C        C      0.428800000000     0.418110000000     0.550975000000     0          
C        C      0.476033333333     0.343845000000     0.645750000000     0          
C        C      0.382950000000     0.349440000000     0.712325000000     0          
C        C      0.414483333333     0.331955000000     0.690025000000     0          
C        C      0.442716666667     0.359065000000     0.671425000000     0          
C        C      0.437116666667     0.403550000000     0.676625000000     0          
C        C      0.404533333333     0.418110000000     0.699025000000     0          
C        C      0.337766666667     0.250000000000     0.517050000000     0          
C        C      0.333333333333     0.481200000000     0.500000000000     0          
C        C      0.476033333333     0.156155000000     0.895750000000     0          
C        C      0.382950000000     0.150560000000     0.962325000000     0          
C        C      0.414483333333     0.168045000000     0.940025000000     0          
C        C      0.442716666667     0.140935000000     0.921425000000     0          
C        C      0.437116666667     0.096450000000     0.926625000000     0          
C        C      0.404533333333     0.081890000000     0.949025000000     0          
C        C      0.357300000000     0.156155000000     0.854250000000     0          
C        C      0.450383333333     0.150560000000     0.787675000000     0          
C        C      0.418850000000     0.168045000000     0.809975000000     0          
C        C      0.390616666667     0.140935000000     0.828575000000     0          
C        C      0.396216666667     0.096450000000     0.823375000000     0          
C        C      0.428800000000     0.081890000000     0.800975000000     0          
C        C      0.357300000000     0.343845000000     0.854250000000     0          
C        C      0.450383333333     0.349440000000     0.787675000000     0          
C        C      0.418850000000     0.331955000000     0.809975000000     0          
C        C      0.390616666667     0.359065000000     0.828575000000     0          
C        C      0.396216666667     0.403550000000     0.823375000000     0          
C        C      0.428800000000     0.418110000000     0.800975000000     0          
C        C      0.476033333333     0.343845000000     0.895750000000     0          
C        C      0.382950000000     0.349440000000     0.962325000000     0          
C        C      0.414483333333     0.331955000000     0.940025000000     0          
C        C      0.442716666667     0.359065000000     0.921425000000     0          
C        C      0.437116666667     0.403550000000     0.926625000000     0          
C        C      0.404533333333     0.418110000000     0.949025000000     0          
C        C      0.337766666667     0.250000000000     0.767050000000     0          
C        C      0.333333333333     0.481200000000     0.750000000000     0          
C        C      0.476033333333     0.656155000000     0.145750000000     0          
C        C      0.382950000000     0.650560000000     0.212325000000     0          
C        C      0.414483333333     0.668045000000     0.190025000000     0          
C        C      0.442716666667     0.640935000000     0.171425000000     0          
C        C      0.437116666667     0.596450000000     0.176625000000     0          
C        C      0.404533333333     0.581890000000     0.199025000000     0          
C        C      0.357300000000     0.656155000000     0.104250000000     0          
C        C      0.450383333333     0.650560000000     0.037675000000     0          
C        C      0.418850000000     0.668045000000     0.059975000000     0          
C        C      0.390616666667     0.640935000000     0.078575000000     0          
C        C      0.396216666667     0.596450000000     0.073375000000     0          
C        C      0.428800000000     0.581890000000     0.050975000000     0          
C        C      0.357300000000     0.843845000000     0.104250000000     0          
C        C      0.450383333333     0.849440000000     0.037675000000     0          
C        C      0.418850000000     0.831955000000     0.059975000000     0          
C        C      0.390616666667     0.859065000000     0.078575000000     0          
C        C      0.396216666667     0.903550000000     0.073375000000     0          
C        C      0.428800000000     0.918110000000     0.050975000000     0          
C        C      0.476033333333     0.843845000000     0.145750000000     0          
C        C      0.382950000000     0.849440000000     0.212325000000     0          
C        C      0.414483333333     0.831955000000     0.190025000000     0          
C        C      0.442716666667     0.859065000000     0.171425000000     0          
C        C      0.437116666667     0.903550000000     0.176625000000     0          
C        C      0.404533333333     0.918110000000     0.199025000000     0          
C        C      0.337766666667     0.750000000000     0.017050000000     0          
C        C      0.333333333333     0.981200000000     0.000000000000     0          
C        C      0.476033333333     0.656155000000     0.395750000000     0          
C        C      0.382950000000     0.650560000000     0.462325000000     0          
C        C      0.414483333333     0.668045000000     0.440025000000     0          
C        C      0.442716666667     0.640935000000     0.421425000000     0          
C        C      0.437116666667     0.596450000000     0.426625000000     0          
C        C      0.404533333333     0.581890000000     0.449025000000     0          
C        C      0.357300000000     0.656155000000     0.354250000000     0          
C        C      0.450383333333     0.650560000000     0.287675000000     0          
C        C      0.418850000000     0.668045000000     0.309975000000     0          
C        C      0.390616666667     0.640935000000     0.328575000000     0          
C        C      0.396216666667     0.596450000000     0.323375000000     0          
C        C      0.428800000000     0.581890000000     0.300975000000     0          
C        C      0.357300000000     0.843845000000     0.354250000000     0          
C        C      0.450383333333     0.849440000000     0.287675000000     0          
C        C      0.418850000000     0.831955000000     0.309975000000     0          
C        C      0.390616666667     0.859065000000     0.328575000000     0          
C        C      0.396216666667     0.903550000000     0.323375000000     0          
C        C      0.428800000000     0.918110000000     0.300975000000     0          
C        C      0.476033333333     0.843845000000     0.395750000000     0          
C        C      0.382950000000     0.849440000000     0.462325000000     0          
C        C      0.414483333333     0.831955000000     0.440025000000     0          
C        C      0.442716666667     0.859065000000     0.421425000000     0          
C        C      0.437116666667     0.903550000000     0.426625000000     0          
C        C      0.404533333333     0.918110000000     0.449025000000     0          
C        C      0.337766666667     0.750000000000     0.267050000000     0          
C        C      0.333333333333     0.981200000000     0.250000000000     0          
C        C      0.476033333333     0.656155000000     0.645750000000     0          
C        C      0.382950000000     0.650560000000     0.712325000000     0          
C        C      0.414483333333     0.668045000000     0.690025000000     0          
C        C      0.442716666667     0.640935000000     0.671425000000     0          
C        C      0.437116666667     0.596450000000     0.676625000000     0          
C        C      0.404533333333     0.581890000000     0.699025000000     0          
C        C      0.357300000000     0.656155000000     0.604250000000     0          
C        C      0.450383333333     0.650560000000     0.537675000000     0          
C        C      0.418850000000     0.668045000000     0.559975000000     0          
C        C      0.390616666667     0.640935000000     0.578575000000     0          
C        C      0.396216666667     0.596450000000     0.573375000000     0          
C        C      0.428800000000     0.581890000000     0.550975000000     0          
C        C      0.357300000000     0.843845000000     0.604250000000     0          
C        C      0.450383333333     0.849440000000     0.537675000000     0          
C        C      0.418850000000     0.831955000000     0.559975000000     0          
C        C      0.390616666667     0.859065000000     0.578575000000     0          
C        C      0.396216666667     0.903550000000     0.573375000000     0          
C        C      0.428800000000     0.918110000000     0.550975000000     0          
C        C      0.476033333333     0.843845000000     0.645750000000     0          
C        C      0.382950000000     0.849440000000     0.712325000000     0          
C        C      0.414483333333     0.831955000000     0.690025000000     0          
C        C      0.442716666667     0.859065000000     0.671425000000     0          
C        C      0.437116666667     0.903550000000     0.676625000000     0          
C        C      0.404533333333     0.918110000000     0.699025000000     0          
C        C      0.337766666667     0.750000000000     0.517050000000     0          
C        C      0.333333333333     0.981200000000     0.500000000000     0          
C        C      0.476033333333     0.656155000000     0.895750000000     0          
C        C      0.382950000000     0.650560000000     0.962325000000     0          
C        C      0.414483333333     0.668045000000     0.940025000000     0          
C        C      0.442716666667     0.640935000000     0.921425000000     0          
C        C      0.437116666667     0.596450000000     0.926625000000     0          
C        C      0.404533333333     0.581890000000     0.949025000000     0          
C        C      0.357300000000     0.656155000000     0.854250000000     0          
C        C      0.450383333333     0.650560000000     0.787675000000     0          
C        C      0.418850000000     0.668045000000     0.809975000000     0          
C        C      0.390616666667     0.640935000000     0.828575000000     0          
C        C      0.396216666667     0.596450000000     0.823375000000     0          
C        C      0.428800000000     0.581890000000     0.800975000000     0          
C        C      0.357300000000     0.843845000000     0.854250000000     0          
C        C      0.450383333333     0.849440000000     0.787675000000     0          
C        C      0.418850000000     0.831955000000     0.809975000000     0          
C        C      0.390616666667     0.859065000000     0.828575000000     0          
C        C      0.396216666667     0.903550000000     0.823375000000     0          
C        C      0.428800000000     0.918110000000     0.800975000000     0          
C        C      0.476033333333     0.843845000000     0.895750000000     0          
C        C      0.382950000000     0.849440000000     0.962325000000     0          
C        C      0.414483333333     0.831955000000     0.940025000000     0          
C        C      0.442716666667     0.859065000000     0.921425000000     0          
C        C      0.437116666667     0.903550000000     0.926625000000     0          
C        C      0.404533333333     0.918110000000     0.949025000000     0          
C        C      0.337766666667     0.750000000000     0.767050000000     0          
C        C      0.333333333333     0.981200000000     0.750000000000     0          
C        C      0.642700000000     0.156155000000     0.145750000000     0          
C        C      0.549616666667     0.150560000000     0.212325000000     0          
C        C      0.581150000000     0.168045000000     0.190025000000     0          
C        C      0.609383333333     0.140935000000     0.171425000000     0          
C        C      0.603783333333     0.096450000000     0.176625000000     0          
C        C      0.571200000000     0.081890000000     0.199025000000     0          
C        C      0.523966666667     0.156155000000     0.104250000000     0          
C        C      0.617050000000     0.150560000000     0.037675000000     0          
C        C      0.585516666667     0.168045000000     0.059975000000     0          
C        C      0.557283333333     0.140935000000     0.078575000000     0          
C        C      0.562883333333     0.096450000000     0.073375000000     0          
C        C      0.595466666667     0.081890000000     0.050975000000     0          
C        C      0.523966666667     0.343845000000     0.104250000000     0          
C        C      0.617050000000     0.349440000000     0.037675000000     0          
C        C      0.585516666667     0.331955000000     0.059975000000     0          
C        C      0.557283333333     0.359065000000     0.078575000000     0          
C        C      0.562883333333     0.403550000000     0.073375000000     0          
C        C      0.595466666667     0.418110000000     0.050975000000     0          
C        C      0.642700000000     0.343845000000     0.145750000000     0          
C        C      0.549616666667     0.349440000000     0.212325000000     0          
C        C      0.581150000000     0.331955000000     0.190025000000     0          
C        C      0.609383333333     0.359065000000     0.171425000000     0          
C        C      0.603783333333     0.403550000000     0.176625000000     0          
C        C      0.571200000000     0.418110000000     0.199025000000     0          
C        C      0.504433333333     0.250000000000     0.017050000000     0          
C        C      0.500000000000     0.481200000000     0.000000000000     0          
C        C      0.642700000000     0.156155000000     0.395750000000     0          
C        C      0.549616666667     0.150560000000     0.462325000000     0          
C        C      0.581150000000     0.168045000000     0.440025000000     0          
C        C      0.609383333333     0.140935000000     0.421425000000     0          
C        C      0.603783333333     0.096450000000     0.426625000000     0          
C        C      0.571200000000     0.081890000000     0.449025000000     0          
C        C      0.523966666667     0.156155000000     0.354250000000     0          
C        C      0.617050000000     0.150560000000     0.287675000000     0          
C        C      0.585516666667     0.168045000000     0.309975000000     0          
C        C      0.557283333333     0.140935000000     0.328575000000     0          
C        C      0.562883333333     0.096450000000     0.323375000000     0          
C        C      0.595466666667     0.081890000000     0.300975000000     0          
C        C      0.523966666667     0.343845000000     0.354250000000     0          
C        C      0.617050000000     0.349440000000     0.287675000000     0          
C        C      0.585516666667     0.331955000000     0.309975000000     0          
C        C      0.557283333333     0.359065000000     0.328575000000     0          
C        C      0.562883333333     0.403550000000     0.323375000000     0          
C        C      0.595466666667     0.418110000000     0.300975000000     0          
C        C      0.642700000000     0.343845000000     0.395750000000     0          
C        C      0.549616666667     0.349440000000     0.462325000000     0          
C        C      0.581150000000     0.331955000000     0.440025000000     0          
C        C      0.609383333333     0.359065000000     0.421425000000     0          
C        C      0.603783333333     0.403550000000     0.426625000000     0          
C        C      0.571200000000     0.418110000000     0.449025000000     0          
C        C      0.504433333333     0.250000000000     0.267050000000     0          
C        C      0.500000000000     0.481200000000     0.250000000000     0          
C        C      0.642700000000     0.156155000000     0.645750000000     0          
C        C      0.549616666667     0.150560000000     0.712325000000     0          
C        C      0.581150000000     0.168045000000     0.690025000000     0          
C        C      0.609383333333     0.140935000000     0.671425000000     0          
C        C      0.603783333333     0.096450000000     0.676625000000     0          
C        C      0.571200000000     0.081890000000     0.699025000000     0          
C        C      0.523966666667     0.156155000000     0.604250000000     0          
C        C      0.617050000000     0.150560000000     0.537675000000     0          
C        C      0.585516666667     0.168045000000     0.559975000000     0          
C        C      0.557283333333     0.140935000000     0.578575000000     0          
C        C      0.562883333333     0.096450000000     0.573375000000     0          
C        C      0.595466666667     0.081890000000     0.550975000000     0          
C        C      0.523966666667     0.343845000000     0.604250000000     0          
C        C      0.617050000000     0.349440000000     0.537675000000     0          
C        C      0.585516666667     0.331955000000     0.559975000000     0          
C        C      0.557283333333     0.359065000000     0.578575000000     0          
C        C      0.562883333333     0.403550000000     0.573375000000     0          
C        C      0.595466666667     0.418110000000     0.550975000000     0          
C        C      0.642700000000     0.343845000000     0.645750000000     0          
C        C      0.549616666667     0.349440000000     0.712325000000     0          
C        C      0.581150000000     0.331955000000     0.690025000000     0          
C        C      0.609383333333     0.359065000000     0.671425000000     0          
C        C      0.603783333333     0.403550000000     0.676625000000     0          
C        C      0.571200000000     0.418110000000     0.699025000000     0          
C        C      0.504433333333     0.250000000000     0.517050000000     0          
C        C      0.500000000000     0.481200000000     0.500000000000     0          
C        C      0.642700000000     0.156155000000     0.895750000000     0          
C        C      0.549616666667     0.150560000000     0.962325000000     0          
C        C      0.581150000000     0.168045000000     0.940025000000     0          
C        C      0.609383333333     0.140935000000     0.921425000000     0          
C        C      0.603783333333     0.096450000000     0.926625000000     0          
C        C      0.571200000000     0.081890000000     0.949025000000     0          
C        C      0.523966666667     0.156155000000     0.854250000000     0          
C        C      0.617050000000     0.150560000000     0.787675000000     0          
C        C      0.585516666667     0.168045000000     0.809975000000     0          
C        C      0.557283333333     0.140935000000     0.828575000000     0          
C        C      0.562883333333     0.096450000000     0.823375000000     0          
C        C      0.595466666667     0.081890000000     0.800975000000     0          
C        C      0.523966666667     0.343845000000     0.854250000000     0          
C        C      0.617050000000     0.349440000000     0.787675000000     0          
C        C      0.585516666667     0.331955000000     0.809975000000     0          
C        C      0.557283333333     0.359065000000     0.828575000000     0          
C        C      0.562883333333     0.403550000000     0.823375000000     0          
C        C      0.595466666667     0.418110000000     0.800975000000     0          
C        C      0.642700000000     0.343845000000     0.895750000000     0          
C        C      0.549616666667     0.349440000000     0.962325000000     0          
C        C      0.581150000000     0.331955000000     0.940025000000     0          
C        C      0.609383333333     0.359065000000     0.921425000000     0          
C        C      0.603783333333     0.403550000000     0.926625000000     0          
C        C      0.571200000000     0.418110000000     0.949025000000     0          
C        C      0.504433333333     0.250000000000     0.767050000000     0          
C        C      0.500000000000     0.481200000000     0.750000000000     0          
C        C      0.642700000000     0.656155000000     0.145750000000     0          
C        C      0.549616666667     0.650560000000     0.212325000000     0          
C        C      0.581150000000     0.668045000000     0.190025000000     0          
C        C      0.609383333333     0.640935000000     0.171425000000     0          
C        C      0.603783333333     0.596450000000     0.176625000000     0          
C        C      0.571200000000     0.581890000000     0.199025000000     0          
C        C      0.523966666667     0.656155000000     0.104250000000     0          
C        C      0.617050000000     0.650560000000     0.037675000000     0          
C        C      0.585516666667     0.668045000000     0.059975000000     0          
C        C      0.557283333333     0.640935000000     0.078575000000     0          
C        C      0.562883333333     0.596450000000     0.073375000000     0          
C        C      0.595466666667     0.581890000000     0.050975000000     0          
C        C      0.523966666667     0.843845000000     0.104250000000     0          
C        C      0.617050000000     0.849440000000     0.037675000000     0          
C        C      0.585516666667     0.831955000000     0.059975000000     0          
C        C      0.557283333333     0.859065000000     0.078575000000     0          
C        C      0.562883333333     0.903550000000     0.073375000000     0          
C        C      0.595466666667     0.918110000000     0.050975000000     0          
C        C      0.642700000000     0.843845000000     0.145750000000     0          
C        C      0.549616666667     0.849440000000     0.212325000000     0          
C        C      0.581150000000     0.831955000000     0.190025000000     0          
C        C      0.609383333333     0.859065000000     0.171425000000     0          
C        C      0.603783333333     0.903550000000     0.176625000000     0          
C        C      0.571200000000     0.918110000000     0.199025000000     0          
C        C      0.504433333333     0.750000000000     0.017050000000     0          
C        C      0.500000000000     0.981200000000     0.000000000000     0          
C        C      0.642700000000     0.656155000000     0.395750000000     0          
C        C      0.549616666667     0.650560000000     0.462325000000     0          
C        C      0.581150000000     0.668045000000     0.440025000000     0          
C        C      0.609383333333     0.640935000000     0.421425000000     0          
C        C      0.603783333333     0.596450000000     0.426625000000     0          
C        C      0.571200000000     0.581890000000     0.449025000000     0          
C        C      0.523966666667     0.656155000000     0.354250000000     0          
C        C      0.617050000000     0.650560000000     0.287675000000     0          
C        C      0.585516666667     0.668045000000     0.309975000000     0          
C        C      0.557283333333     0.640935000000     0.328575000000     0          
C        C      0.562883333333     0.596450000000     0.323375000000     0          
C        C      0.595466666667     0.581890000000     0.300975000000     0          
C        C      0.523966666667     0.843845000000     0.354250000000     0          
C        C      0.617050000000     0.849440000000     0.287675000000     0          
C        C      0.585516666667     0.831955000000     0.309975000000     0          
C        C      0.557283333333     0.859065000000     0.328575000000     0          
C        C      0.562883333333     0.903550000000     0.323375000000     0          
C        C      0.595466666667     0.918110000000     0.300975000000     0          
C        C      0.642700000000     0.843845000000     0.395750000000     0          
C        C      0.549616666667     0.849440000000     0.462325000000     0          
C        C      0.581150000000     0.831955000000     0.440025000000     0          
C        C      0.609383333333     0.859065000000     0.421425000000     0          
C        C      0.603783333333     0.903550000000     0.426625000000     0          
C        C      0.571200000000     0.918110000000     0.449025000000     0          
C        C      0.504433333333     0.750000000000     0.267050000000     0          
C        C      0.500000000000     0.981200000000     0.250000000000     0          
C        C      0.642700000000     0.656155000000     0.645750000000     0          
C        C      0.549616666667     0.650560000000     0.712325000000     0          
C        C      0.581150000000     0.668045000000     0.690025000000     0          
C        C      0.609383333333     0.640935000000     0.671425000000     0          
C        C      0.603783333333     0.596450000000     0.676625000000     0          
C        C      0.571200000000     0.581890000000     0.699025000000     0          
C        C      0.523966666667     0.656155000000     0.604250000000     0          
C        C      0.617050000000     0.650560000000     0.537675000000     0          
C        C      0.585516666667     0.668045000000     0.559975000000     0          
C        C      0.557283333333     0.640935000000     0.578575000000     0          
C        C      0.562883333333     0.596450000000     0.573375000000     0          
C        C      0.595466666667     0.581890000000     0.550975000000     0          
C        C      0.523966666667     0.843845000000     0.604250000000     0          
C        C      0.617050000000     0.849440000000     0.537675000000     0          
C        C      0.585516666667     0.831955000000     0.559975000000     0          
C        C      0.557283333333     0.859065000000     0.578575000000     0          
C        C      0.562883333333     0.903550000000     0.573375000000     0          
C        C      0.595466666667     0.918110000000     0.550975000000     0          
C        C      0.642700000000     0.843845000000     0.645750000000     0          
C        C      0.549616666667     0.849440000000     0.712325000000     0          
C        C      0.581150000000     0.831955000000     0.690025000000     0          
C        C      0.609383333333     0.859065000000     0.671425000000     0          
C        C      0.603783333333     0.903550000000     0.676625000000     0          
C        C      0.571200000000     0.918110000000     0.699025000000     0          
C        C      0.504433333333     0.750000000000     0.517050000000     0          
C        C      0.500000000000     0.981200000000     0.500000000000     0          
C        C      0.642700000000     0.656155000000     0.895750000000     0          
C        C      0.549616666667     0.650560000000     0.962325000000     0          
C        C      0.581150000000     0.668045000000     0.940025000000     0          
C        C      0.609383333333     0.640935000000     0.921425000000     0          
C        C      0.603783333333     0.596450000000     0.926625000000     0          
C        C      0.571200000000     0.581890000000     0.949025000000     0          
C        C      0.523966666667     0.656155000000     0.854250000000     0          
C        C      0.617050000000     0.650560000000     0.787675000000     0          
C        C      0.585516666667     0.668045000000     0.809975000000     0          
C        C      0.557283333333     0.640935000000     0.828575000000     0          
C        C      0.562883333333     0.596450000000     0.823375000000     0          
C        C      0.595466666667     0.581890000000     0.800975000000     0          
C        C      0.523966666667     0.843845000000     0.854250000000     0          
C        C      0.617050000000     0.849440000000     0.787675000000     0          
C        C      0.585516666667     0.831955000000     0.809975000000     0          
C        C      0.557283333333     0.859065000000     0.828575000000     0          
C        C      0.562883333333     0.903550000000     0.823375000000     0          
C        C      0.595466666667     0.918110000000     0.800975000000     0          
C        C      0.642700000000     0.843845000000     0.895750000000     0          
C        C      0.549616666667     0.849440000000     0.962325000000     0          
C        C      0.581150000000     0.831955000000     0.940025000000     0          
C        C      0.609383333333     0.859065000000     0.921425000000     0          
C        C      0.603783333333     0.903550000000     0.926625000000     0          
C        C      0.571200000000     0.918110000000     0.949025000000     0          
C        C      0.504433333333     0.750000000000     0.767050000000     0          
C        C      0.500000000000     0.981200000000     0.750000000000     0          
C        C      0.809366666667     0.156155000000     0.145750000000     0          
C        C      0.716283333333     0.150560000000     0.212325000000     0          
C        C      0.747816666667     0.168045000000     0.190025000000     0          
C        C      0.776050000000     0.140935000000     0.171425000000     0          
C        C      0.770450000000     0.096450000000     0.176625000000     0          
C        C      0.737866666667     0.081890000000     0.199025000000     0          
C        C      0.690633333333     0.156155000000     0.104250000000     0          
C        C      0.783716666667     0.150560000000     0.037675000000     0          
C        C      0.752183333333     0.168045000000     0.059975000000     0          
C        C      0.723950000000     0.140935000000     0.078575000000     0          
C        C      0.729550000000     0.096450000000     0.073375000000     0          
C        C      0.762133333333     0.081890000000     0.050975000000     0          
C        C      0.690633333333     0.343845000000     0.104250000000     0          
C        C      0.783716666667     0.349440000000     0.037675000000     0          
C        C      0.752183333333     0.331955000000     0.059975000000     0          
C        C      0.723950000000     0.359065000000     0.078575000000     0          
C        C      0.729550000000     0.403550000000     0.073375000000     0          
C        C      0.762133333333     0.418110000000     0.050975000000     0          
C        C      0.809366666667     0.343845000000     0.145750000000     0          
C        C      0.716283333333     0.349440000000     0.212325000000     0          
C        C      0.747816666667     0.331955000000     0.190025000000     0          
C        C      0.776050000000     0.359065000000     0.171425000000     0          
C        C      0.770450000000     0.403550000000     0.176625000000     0          
C        C      0.737866666667     0.418110000000     0.199025000000     0          
C        C      0.671100000000     0.250000000000     0.017050000000     0          
C        C      0.666666666667     0.481200000000     0.000000000000     0          
C        C      0.809366666667     0.156155000000     0.395750000000     0          
C        C      0.716283333333     0.150560000000     0.462325000000     0          
C        C      0.747816666667     0.168045000000     0.440025000000     0          
C        C      0.776050000000     0.140935000000     0.421425000000     0          
C        C      0.770450000000     0.096450000000     0.426625000000     0          
C        C      0.737866666667     0.081890000000     0.449025000000     0          
C        C      0.690633333333     0.156155000000     0.354250000000     0          
C        C      0.783716666667     0.150560000000     0.287675000000     0          
C        C      0.752183333333     0.168045000000     0.309975000000     0          
C        C      0.723950000000     0.140935000000     0.328575000000     0          
C        C      0.729550000000     0.096450000000     0.323375000000     0          
C        C      0.762133333333     0.081890000000     0.300975000000     0          
C        C      0.690633333333     0.343845000000     0.354250000000     0          
C        C      0.783716666667     0.349440000000     0.287675000000     0          
C        C      0.752183333333     0.331955000000     0.309975000000     0          
C        C      0.723950000000     0.359065000000     0.328575000000     0          
C        C      0.729550000000     0.403550000000     0.323375000000     0          
C        C      0.762133333333     0.418110000000     0.300975000000     0          
C        C      0.809366666667     0.343845000000     0.395750000000     0          
C        C      0.716283333333     0.349440000000     0.462325000000     0          
C        C      0.747816666667     0.331955000000     0.440025000000     0          
C        C      0.776050000000     0.359065000000     0.421425000000     0          
C        C      0.770450000000     0.403550000000     0.426625000000     0          
C        C      0.737866666667     0.418110000000     0.449025000000     0          
C        C      0.671100000000     0.250000000000     0.267050000000     0          
C        C      0.666666666667     0.481200000000     0.250000000000     0          
C        C      0.809366666667     0.156155000000     0.645750000000     0          
C        C      0.716283333333     0.150560000000     0.712325000000     0          
C        C      0.747816666667     0.168045000000     0.690025000000     0          
C        C      0.776050000000     0.140935000000     0.671425000000     0          
C        C      0.770450000000     0.096450000000     0.676625000000     0          
C        C      0.737866666667     0.081890000000     0.699025000000     0          
C        C      0.690633333333     0.156155000000     0.604250000000     0          
C        C      0.783716666667     0.150560000000     0.537675000000     0          
C        C      0.752183333333     0.168045000000     0.559975000000     0          
C        C      0.723950000000     0.140935000000     0.578575000000     0          
C        C      0.729550000000     0.096450000000     0.573375000000     0          
C        C      0.762133333333     0.081890000000     0.550975000000     0          
C        C      0.690633333333     0.343845000000     0.604250000000     0          
C        C      0.783716666667     0.349440000000     0.537675000000     0          
C        C      0.752183333333     0.331955000000     0.559975000000     0          
C        C      0.723950000000     0.359065000000     0.578575000000     0          
C        C      0.729550000000     0.403550000000     0.573375000000     0          
C        C      0.762133333333     0.418110000000     0.550975000000     0          
C        C      0.809366666667     0.343845000000     0.645750000000     0          
C        C      0.716283333333     0.349440000000     0.712325000000     0          
C        C      0.747816666667     0.331955000000     0.690025000000     0          
C        C      0.776050000000     0.359065000000     0.671425000000     0          
C        C      0.770450000000     0.403550000000     0.676625000000     0          
C        C      0.737866666667     0.418110000000     0.699025000000     0          
C        C      0.671100000000     0.250000000000     0.517050000000     0          
C        C      0.666666666667     0.481200000000     0.500000000000     0          
C        C      0.809366666667     0.156155000000     0.895750000000     0          
C        C      0.716283333333     0.150560000000     0.962325000000     0          
C        C      0.747816666667     0.168045000000     0.940025000000     0          
C        C      0.776050000000     0.140935000000     0.921425000000     0          
C        C      0.770450000000     0.096450000000     0.926625000000     0          
C        C      0.737866666667     0.081890000000     0.949025000000     0          
C        C      0.690633333333     0.156155000000     0.854250000000     0          
C        C      0.783716666667     0.150560000000     0.787675000000     0          
C        C      0.752183333333     0.168045000000     0.809975000000     0          
C        C      0.723950000000     0.140935000000     0.828575000000     0          
C        C      0.729550000000     0.096450000000     0.823375000000     0          
C        C      0.762133333333     0.081890000000     0.800975000000     0          
C        C      0.690633333333     0.343845000000     0.854250000000     0          
C        C      0.783716666667     0.349440000000     0.787675000000     0          
C        C      0.752183333333     0.331955000000     0.809975000000     0          
C        C      0.723950000000     0.359065000000     0.828575000000     0          
C        C      0.729550000000     0.403550000000     0.823375000000     0          
C        C      0.762133333333     0.418110000000     0.800975000000     0          
C        C      0.809366666667     0.343845000000     0.895750000000     0          
C        C      0.716283333333     0.349440000000     0.962325000000     0          
C        C      0.747816666667     0.331955000000     0.940025000000     0          
C        C      0.776050000000     0.359065000000     0.921425000000     0          
C        C      0.770450000000     0.403550000000     0.926625000000     0          
C        C      0.737866666667     0.418110000000     0.949025000000     0          
C        C      0.671100000000     0.250000000000     0.767050000000     0          
C        C      0.666666666667     0.481200000000     0.750000000000     0          
C        C      0.809366666667     0.656155000000     0.145750000000     0          
C        C      0.716283333333     0.650560000000     0.212325000000     0          
C        C      0.747816666667     0.668045000000     0.190025000000     0          
C        C      0.776050000000     0.640935000000     0.171425000000     0          
C        C      0.770450000000     0.596450000000     0.176625000000     0          
C        C      0.737866666667     0.581890000000     0.199025000000     0          
C        C      0.690633333333     0.656155000000     0.104250000000     0          
C        C      0.783716666667     0.650560000000     0.037675000000     0          
C        C      0.752183333333     0.668045000000     0.059975000000     0          
C        C      0.723950000000     0.640935000000     0.078575000000     0          
C        C      0.729550000000     0.596450000000     0.073375000000     0          
C        C      0.762133333333     0.581890000000     0.050975000000     0          
C        C      0.690633333333     0.843845000000     0.104250000000     0          
C        C      0.783716666667     0.849440000000     0.037675000000     0          
C        C      0.752183333333     0.831955000000     0.059975000000     0          
C        C      0.723950000000     0.859065000000     0.078575000000     0          
C        C      0.729550000000     0.903550000000     0.073375000000     0          
C        C      0.762133333333     0.918110000000     0.050975000000     0          
C        C      0.809366666667     0.843845000000     0.145750000000     0          
C        C      0.716283333333     0.849440000000     0.212325000000     0          
C        C      0.747816666667     0.831955000000     0.190025000000     0          
C        C      0.776050000000     0.859065000000     0.171425000000     0          
C        C      0.770450000000     0.903550000000     0.176625000000     0          
C        C      0.737866666667     0.918110000000     0.199025000000     0          
C        C      0.671100000000     0.750000000000     0.017050000000     0          
C        C      0.666666666667     0.981200000000     0.000000000000     0          
C        C      0.809366666667     0.656155000000     0.395750000000     0          
C        C      0.716283333333     0.650560000000     0.462325000000     0          
C        C      0.747816666667     0.668045000000     0.440025000000     0          
C        C      0.776050000000     0.640935000000     0.421425000000     0          
C        C      0.770450000000     0.596450000000     0.426625000000     0          
C        C      0.737866666667     0.581890000000     0.449025000000     0          
C        C      0.690633333333     0.656155000000     0.354250000000     0          
C        C      0.783716666667     0.650560000000     0.287675000000     0          
C        C      0.752183333333     0.668045000000     0.309975000000     0          
C        C      0.723950000000     0.640935000000     0.328575000000     0          
C        C      0.729550000000     0.596450000000     0.323375000000     0          
C        C      0.762133333333     0.581890000000     0.300975000000     0          
C        C      0.690633333333     0.843845000000     0.354250000000     0          
C        C      0.783716666667     0.849440000000     0.287675000000     0          
C        C      0.752183333333     0.831955000000     0.309975000000     0          
C        C      0.723950000000     0.859065000000     0.328575000000     0          
C        C      0.729550000000     0.903550000000     0.323375000000     0          
C        C      0.762133333333     0.918110000000     0.300975000000     0          
C        C      0.809366666667     0.843845000000     0.395750000000     0          
C        C      0.716283333333     0.849440000000     0.462325000000     0          
C        C      0.747816666667     0.831955000000     0.440025000000     0          
C        C      0.776050000000     0.859065000000     0.421425000000     0          
C        C      0.770450000000     0.903550000000     0.426625000000     0          
C        C      0.737866666667     0.918110000000     0.449025000000     0          
C        C      0.671100000000     0.750000000000     0.267050000000     0          
C        C      0.666666666667     0.981200000000     0.250000000000     0          
C        C      0.809366666667     0.656155000000     0.645750000000     0          
C        C      0.716283333333     0.650560000000     0.712325000000     0          
C        C      0.747816666667     0.668045000000     0.690025000000     0          
C        C      0.776050000000     0.640935000000     0.671425000000     0          
C        C      0.770450000000     0.596450000000     0.676625000000     0          
C        C      0.737866666667     0.581890000000     0.699025000000     0          
C        C      0.690633333333     0.656155000000     0.604250000000     0          
C        C      0.783716666667     0.650560000000     0.537675000000     0          
C        C      0.752183333333     0.668045000000     0.559975000000     0          
C        C      0.723950000000     0.640935000000     0.578575000000     0          
C        C      0.729550000000     0.596450000000     0.573375000000     0          
C        C      0.762133333333     0.581890000000     0.550975000000     0          
C        C      0.690633333333     0.843845000000     0.604250000000     0          
C        C      0.783716666667     0.849440000000     0.537675000000     0          
C        C      0.752183333333     0.831955000000     0.559975000000     0          
C        C      0.723950000000     0.859065000000     0.578575000000     0          
C        C      0.729550000000     0.903550000000     0.573375000000     0          
C        C      0.762133333333     0.918110000000     0.550975000000     0          
C        C      0.809366666667     0.843845000000     0.645750000000     0          
C        C      0.716283333333     0.849440000000     0.712325000000     0          
C        C      0.747816666667     0.831955000000     0.690025000000     0          
C        C      0.776050000000     0.859065000000     0.671425000000     0          
C        C      0.770450000000     0.903550000000     0.676625000000     0          
C        C      0.737866666667     0.918110000000     0.699025000000     0          
C        C      0.671100000000     0.750000000000     0.517050000000     0          
C        C      0.666666666667     0.981200000000     0.500000000000     0          
C        C      0.809366666667     0.656155000000     0.895750000000     0          
C        C      0.716283333333     0.650560000000     0.962325000000     0          
C        C      0.747816666667     0.668045000000     0.940025000000     0          
C        C      0.776050000000     0.640935000000     0.921425000000     0          
C        C      0.770450000000     0.596450000000     0.926625000000     0          
C        C      0.737866666667     0.581890000000     0.949025000000     0          
C        C      0.690633333333     0.656155000000     0.854250000000     0          
C        C      0.783716666667     0.650560000000     0.787675000000     0          
C        C      0.752183333333     0.668045000000     0.809975000000     0          
C        C      0.723950000000     0.640935000000     0.828575000000     0          
C        C      0.729550000000     0.596450000000     0.823375000000     0          
C        C      0.762133333333     0.581890000000     0.800975000000     0          
C        C      0.690633333333     0.843845000000     0.854250000000     0          
C        C      0.783716666667     0.849440000000     0.787675000000     0          
C        C      0.752183333333     0.831955000000     0.809975000000     0          
C        C      0.723950000000     0.859065000000     0.828575000000     0          
C        C      0.729550000000     0.903550000000     0.823375000000     0          
C        C      0.762133333333     0.918110000000     0.800975000000     0          
C        C      0.809366666667     0.843845000000     0.895750000000     0          
C        C      0.716283333333     0.849440000000     0.962325000000     0          
C        C      0.747816666667     0.831955000000     0.940025000000     0          
C        C      0.776050000000     0.859065000000     0.921425000000     0          
C        C      0.770450000000     0.903550000000     0.926625000000     0          
C        C      0.737866666667     0.918110000000     0.949025000000     0          
C        C      0.671100000000     0.750000000000     0.767050000000     0          
C        C      0.666666666667     0.981200000000     0.750000000000     0          
C        C      0.976033333333     0.156155000000     0.145750000000     0          
C        C      0.882950000000     0.150560000000     0.212325000000     0          
C        C      0.914483333333     0.168045000000     0.190025000000     0          
C        C      0.942716666667     0.140935000000     0.171425000000     0          
C        C      0.937116666667     0.096450000000     0.176625000000     0          
C        C      0.904533333333     0.081890000000     0.199025000000     0          
C        C      0.857300000000     0.156155000000     0.104250000000     0          
C        C      0.950383333333     0.150560000000     0.037675000000     0          
C        C      0.918850000000     0.168045000000     0.059975000000     0          
C        C      0.890616666667     0.140935000000     0.078575000000     0          
C        C      0.896216666667     0.096450000000     0.073375000000     0          
C        C      0.928800000000     0.081890000000     0.050975000000     0          
C        C      0.857300000000     0.343845000000     0.104250000000     0          
C        C      0.950383333333     0.349440000000     0.037675000000     0          
C        C      0.918850000000     0.331955000000     0.059975000000     0          
C        C      0.890616666667     0.359065000000     0.078575000000     0          
C        C      0.896216666667     0.403550000000     0.073375000000     0          
C        C      0.928800000000     0.418110000000     0.050975000000     0          
C        C      0.976033333333     0.343845000000     0.145750000000     0          
C        C      0.882950000000     0.349440000000     0.212325000000     0          
C        C      0.914483333333     0.331955000000     0.190025000000     0          
C        C      0.942716666667     0.359065000000     0.171425000000     0          
C        C      0.937116666667     0.403550000000     0.176625000000     0          
C        C      0.904533333333     0.418110000000     0.199025000000     0          
C        C      0.837766666667     0.250000000000     0.017050000000     0          
C        C      0.833333333333     0.481200000000     0.000000000000     0          
C        C      0.976033333333     0.156155000000     0.395750000000     0          
C        C      0.882950000000     0.150560000000     0.462325000000     0          
C        C      0.914483333333     0.168045000000     0.440025000000     0          
C        C      0.942716666667     0.140935000000     0.421425000000     0          
C        C      0.937116666667     0.096450000000     0.426625000000     0          
C        C      0.904533333333     0.081890000000     0.449025000000     0          
C        C      0.857300000000     0.156155000000     0.354250000000     0          
C        C      0.950383333333     0.150560000000     0.287675000000     0          
C        C      0.918850000000     0.168045000000     0.309975000000     0          
C        C      0.890616666667     0.140935000000     0.328575000000     0          
C        C      0.896216666667     0.096450000000     0.323375000000     0          
C        C      0.928800000000     0.081890000000     0.300975000000     0          
C        C      0.857300000000     0.343845000000     0.354250000000     0          
C        C      0.950383333333     0.349440000000     0.287675000000     0          
C        C      0.918850000000     0.331955000000     0.309975000000     0          
C        C      0.890616666667     0.359065000000     0.328575000000     0          
C        C      0.896216666667     0.403550000000     0.323375000000     0          
C        C      0.928800000000     0.418110000000     0.300975000000     0          
C        C      0.976033333333     0.343845000000     0.395750000000     0          
C        C      0.882950000000     0.349440000000     0.462325000000     0          
C        C      0.914483333333     0.331955000000     0.440025000000     0          
C        C      0.942716666667     0.359065000000     0.421425000000     0          
C        C      0.937116666667     0.403550000000     0.426625000000     0          
C        C      0.904533333333     0.418110000000     0.449025000000     0          
C        C      0.837766666667     0.250000000000     0.267050000000     0          
C        C      0.833333333333     0.481200000000     0.250000000000     0          
C        C      0.976033333333     0.156155000000     0.645750000000     0          
C        C      0.882950000000     0.150560000000     0.712325000000     0          
C        C      0.914483333333     0.168045000000     0.690025000000     0          
C        C      0.942716666667     0.140935000000     0.671425000000     0          
C        C      0.937116666667     0.096450000000     0.676625000000     0          
C        C      0.904533333333     0.081890000000     0.699025000000     0          
C        C      0.857300000000     0.156155000000     0.604250000000     0          
C        C      0.950383333333     0.150560000000     0.537675000000     0          
C        C      0.918850000000     0.168045000000     0.559975000000     0          
C        C      0.890616666667     0.140935000000     0.578575000000     0          
C        C      0.896216666667     0.096450000000     0.573375000000     0          
C        C      0.928800000000     0.081890000000     0.550975000000     0          
C        C      0.857300000000     0.343845000000     0.604250000000     0          
C        C      0.950383333333     0.349440000000     0.537675000000     0          
C        C      0.918850000000     0.331955000000     0.559975000000     0          
C        C      0.890616666667     0.359065000000     0.578575000000     0          
C        C      0.896216666667     0.403550000000     0.573375000000     0          
C        C      0.928800000000     0.418110000000     0.550975000000     0          
C        C      0.976033333333     0.343845000000     0.645750000000     0          
C        C      0.882950000000     0.349440000000     0.712325000000     0          
C        C      0.914483333333     0.331955000000     0.690025000000     0          
C        C      0.942716666667     0.359065000000     0.671425000000     0          
C        C      0.937116666667     0.403550000000     0.676625000000     0          
C        C      0.904533333333     0.418110000000     0.699025000000     0          
C        C      0.837766666667     0.250000000000     0.517050000000     0          
C        C      0.833333333333     0.481200000000     0.500000000000     0          
C        C      0.976033333333     0.156155000000     0.895750000000     0          
C        C      0.882950000000     0.150560000000     0.962325000000     0          
C        C      0.914483333333     0.168045000000     0.940025000000     0          
C        C      0.942716666667     0.140935000000     0.921425000000     0          
C        C      0.937116666667     0.096450000000     0.926625000000     0          
C        C      0.904533333333     0.081890000000     0.949025000000     0          
C        C      0.857300000000     0.156155000000     0.854250000000     0          
C        C      0.950383333333     0.150560000000     0.787675000000     0          
C        C      0.918850000000     0.168045000000     0.809975000000     0          
C        C      0.890616666667     0.140935000000     0.828575000000     0          
C        C      0.896216666667     0.096450000000     0.823375000000     0          
C        C      0.928800000000     0.081890000000     0.800975000000     0          
C        C      0.857300000000     0.343845000000     0.854250000000     0          
C        C      0.950383333333     0.349440000000     0.787675000000     0          
C        C      0.918850000000     0.331955000000     0.809975000000     0          
C        C      0.890616666667     0.359065000000     0.828575000000     0          
C        C      0.896216666667     0.403550000000     0.823375000000     0          
C        C      0.928800000000     0.418110000000     0.800975000000     0          
C        C      0.976033333333     0.343845000000     0.895750000000     0          
C        C      0.882950000000     0.349440000000     0.962325000000     0          
C        C      0.914483333333     0.331955000000     0.940025000000     0          
C        C      0.942716666667     0.359065000000     0.921425000000     0          
C        C      0.937116666667     0.403550000000     0.926625000000     0          
C        C      0.904533333333     0.418110000000     0.949025000000     0          
C        C      0.837766666667     0.250000000000     0.767050000000     0          
C        C      0.833333333333     0.481200000000     0.750000000000     0          
C        C      0.976033333333     0.656155000000     0.145750000000     0          
C        C      0.882950000000     0.650560000000     0.212325000000     0          
C        C      0.914483333333     0.668045000000     0.190025000000     0          
C        C      0.942716666667     0.640935000000     0.171425000000     0          
C        C      0.937116666667     0.596450000000     0.176625000000     0          
C        C      0.904533333333     0.581890000000     0.199025000000     0          
C        C      0.857300000000     0.656155000000     0.104250000000     0          
C        C      0.950383333333     0.650560000000     0.037675000000     0          
C        C      0.918850000000     0.668045000000     0.059975000000     0          
C        C      0.890616666667     0.640935000000     0.078575000000     0          
C        C      0.896216666667     0.596450000000     0.073375000000     0          
C        C      0.928800000000     0.581890000000     0.050975000000     0          
C        C      0.857300000000     0.843845000000     0.104250000000     0          
C        C      0.950383333333     0.849440000000     0.037675000000     0          
C        C      0.918850000000     0.831955000000     0.059975000000     0          
C        C      0.890616666667     0.859065000000     0.078575000000     0          
C        C      0.896216666667     0.903550000000     0.073375000000     0          
C        C      0.928800000000     0.918110000000     0.050975000000     0          
C        C      0.976033333333     0.843845000000     0.145750000000     0          
C        C      0.882950000000     0.849440000000     0.212325000000     0          
C        C      0.914483333333     0.831955000000     0.190025000000     0          
C        C      0.942716666667     0.859065000000     0.171425000000     0          
C        C      0.937116666667     0.903550000000     0.176625000000     0          
C        C      0.904533333333     0.918110000000     0.199025000000     0          
C        C      0.837766666667     0.750000000000     0.017050000000     0          
C        C      0.833333333333     0.981200000000     0.000000000000     0          
C        C      0.976033333333     0.656155000000     0.395750000000     0          
C        C      0.882950000000     0.650560000000     0.462325000000     0          
C        C      0.914483333333     0.668045000000     0.440025000000     0          
C        C      0.942716666667     0.640935000000     0.421425000000     0          
C        C      0.937116666667     0.596450000000     0.426625000000     0          
C        C      0.904533333333     0.581890000000     0.449025000000     0          
C        C      0.857300000000     0.656155000000     0.354250000000     0          
C        C      0.950383333333     0.650560000000     0.287675000000     0          
C        C      0.918850000000     0.668045000000     0.309975000000     0          
C        C      0.890616666667     0.640935000000     0.328575000000     0          
C        C      0.896216666667     0.596450000000     0.323375000000     0          
C        C      0.928800000000     0.581890000000     0.300975000000     0          
C        C      0.857300000000     0.843845000000     0.354250000000     0          
C        C      0.950383333333     0.849440000000     0.287675000000     0          
C        C      0.918850000000     0.831955000000     0.309975000000     0          
C        C      0.890616666667     0.859065000000     0.328575000000     0          
C        C      0.896216666667     0.903550000000     0.323375000000     0          
C        C      0.928800000000     0.918110000000     0.300975000000     0          
C        C      0.976033333333     0.843845000000     0.395750000000     0          
C        C      0.882950000000     0.849440000000     0.462325000000     0          
C        C      0.914483333333     0.831955000000     0.440025000000     0          
C        C      0.942716666667     0.859065000000     0.421425000000     0          
C        C      0.937116666667     0.903550000000     0.426625000000     0          
C        C      0.904533333333     0.918110000000     0.449025000000     0          
C        C      0.837766666667     0.750000000000     0.267050000000     0          
C        C      0.833333333333     0.981200000000     0.250000000000     0          
C        C      0.976033333333     0.656155000000     0.645750000000     0          
C        C      0.882950000000     0.650560000000     0.712325000000     0          
C        C      0.914483333333     0.668045000000     0.690025000000     0          
C        C      0.942716666667     0.640935000000     0.671425000000     0          
C        C      0.937116666667     0.596450000000     0.676625000000     0          
C        C      0.904533333333     0.581890000000     0.699025000000     0          
C        C      0.857300000000     0.656155000000     0.604250000000     0          
C        C      0.950383333333     0.650560000000     0.537675000000     0          
C        C      0.918850000000     0.668045000000     0.559975000000     0          
C        C      0.890616666667     0.640935000000     0.578575000000     0          
C        C      0.896216666667     0.596450000000     0.573375000000     0          
C        C      0.928800000000     0.581890000000     0.550975000000     0          
C        C      0.857300000000     0.843845000000     0.604250000000     0          
C        C      0.950383333333     0.849440000000     0.537675000000     0          
C        C      0.918850000000     0.831955000000     0.559975000000     0          
C        C      0.890616666667     0.859065000000     0.578575000000     0          
C        C      0.896216666667     0.903550000000     0.573375000000     0          
C        C      0.928800000000     0.918110000000     0.550975000000     0          
C        C      0.976033333333     0.843845000000     0.645750000000     0          
C        C      0.882950000000     0.849440000000     0.712325000000     0          
C        C      0.914483333333     0.831955000000     0.690025000000     0          
C        C      0.942716666667     0.859065000000     0.671425000000     0          
C        C      0.937116666667     0.903550000000     0.676625000000     0          
C        C      0.904533333333     0.918110000000     0.699025000000     0          
C        C      0.837766666667     0.750000000000     0.517050000000     0          
C        C      0.833333333333     0.981200000000     0.500000000000     0          
C        C      0.976033333333     0.656155000000     0.895750000000     0          
C        C      0.882950000000     0.650560000000     0.962325000000     0          
C        C      0.914483333333     0.668045000000     0.940025000000     0          
C        C      0.942716666667     0.640935000000     0.921425000000     0          
C        C      0.937116666667     0.596450000000     0.926625000000     0          
C        C      0.904533333333     0.581890000000     0.949025000000     0          
C        C      0.857300000000     0.656155000000     0.854250000000     0          
C        C      0.950383333333     0.650560000000     0.787675000000     0          
C        C      0.918850000000     0.668045000000     0.809975000000     0          
C        C      0.890616666667     0.640935000000     0.828575000000     0          
C        C      0.896216666667     0.596450000000     0.823375000000     0          
C        C      0.928800000000     0.581890000000     0.800975000000     0          
C        C      0.857300000000     0.843845000000     0.854250000000     0          
C        C      0.950383333333     0.849440000000     0.787675000000     0          
C        C      0.918850000000     0.831955000000     0.809975000000     0          
C        C      0.890616666667     0.859065000000     0.828575000000     0          
C        C      0.896216666667     0.903550000000     0.823375000000     0          
C        C      0.928800000000     0.918110000000     0.800975000000     0          
C        C      0.976033333333     0.843845000000     0.895750000000     0          
C        C      0.882950000000     0.849440000000     0.962325000000     0          
C        C      0.914483333333     0.831955000000     0.940025000000     0          
C        C      0.942716666667     0.859065000000     0.921425000000     0          
C        C      0.937116666667     0.903550000000     0.926625000000     0          
C        C      0.904533333333     0.918110000000     0.949025000000     0          
C        C      0.837766666667     0.750000000000     0.767050000000     0          
C        C      0.833333333333     0.981200000000     0.750000000000     0          
Cu       Cu     0.151148333333     0.250000000000     0.175985000000     0          
Cu       Cu     0.015518333333     0.250000000000     0.074015000000     0          
Cu       Cu     0.000000000000     0.080800000000     0.000000000000     0          
Cu       Cu     0.000000000000     0.419200000000     0.000000000000     0          
Cu       Cu     0.151148333333     0.250000000000     0.425985000000     0          
Cu       Cu     0.015518333333     0.250000000000     0.324015000000     0          
Cu       Cu     0.000000000000     0.080800000000     0.250000000000     0          
Cu       Cu     0.000000000000     0.419200000000     0.250000000000     0          
Cu       Cu     0.151148333333     0.250000000000     0.675985000000     0          
Cu       Cu     0.015518333333     0.250000000000     0.574015000000     0          
Cu       Cu     0.000000000000     0.080800000000     0.500000000000     0          
Cu       Cu     0.000000000000     0.419200000000     0.500000000000     0          
Cu       Cu     0.151148333333     0.250000000000     0.925985000000     0          
Cu       Cu     0.015518333333     0.250000000000     0.824015000000     0          
Cu       Cu     0.000000000000     0.080800000000     0.750000000000     0          
Cu       Cu     0.000000000000     0.419200000000     0.750000000000     0          
Cu       Cu     0.151148333333     0.750000000000     0.175985000000     0          
Cu       Cu     0.015518333333     0.750000000000     0.074015000000     0          
Cu       Cu     0.000000000000     0.580800000000     0.000000000000     0          
Cu       Cu     0.000000000000     0.919200000000     0.000000000000     0          
Cu       Cu     0.151148333333     0.750000000000     0.425985000000     0          
Cu       Cu     0.015518333333     0.750000000000     0.324015000000     0          
Cu       Cu     0.000000000000     0.580800000000     0.250000000000     0          
Cu       Cu     0.000000000000     0.919200000000     0.250000000000     0          
Cu       Cu     0.151148333333     0.750000000000     0.675985000000     0          
Cu       Cu     0.015518333333     0.750000000000     0.574015000000     0          
Cu       Cu     0.000000000000     0.580800000000     0.500000000000     0          
Cu       Cu     0.000000000000     0.919200000000     0.500000000000     0          
Cu       Cu     0.151148333333     0.750000000000     0.925985000000     0          
Cu       Cu     0.015518333333     0.750000000000     0.824015000000     0          
Cu       Cu     0.000000000000     0.580800000000     0.750000000000     0          
Cu       Cu     0.000000000000     0.919200000000     0.750000000000     0          
Cu       Cu     0.317815000000     0.250000000000     0.175985000000     0          
Cu       Cu     0.182185000000     0.250000000000     0.074015000000     0          
Cu       Cu     0.166666666667     0.080800000000     0.000000000000     0          
Cu       Cu     0.166666666667     0.419200000000     0.000000000000     0          
Cu       Cu     0.317815000000     0.250000000000     0.425985000000     0          
Cu       Cu     0.182185000000     0.250000000000     0.324015000000     0          
Cu       Cu     0.166666666667     0.080800000000     0.250000000000     0          
Cu       Cu     0.166666666667     0.419200000000     0.250000000000     0          
Cu       Cu     0.317815000000     0.250000000000     0.675985000000     0          
Cu       Cu     0.182185000000     0.250000000000     0.574015000000     0          
Cu       Cu     0.166666666667     0.080800000000     0.500000000000     0          
Cu       Cu     0.166666666667     0.419200000000     0.500000000000     0          
Cu       Cu     0.317815000000     0.250000000000     0.925985000000     0          
Cu       Cu     0.182185000000     0.250000000000     0.824015000000     0          
Cu       Cu     0.166666666667     0.080800000000     0.750000000000     0          
Cu       Cu     0.166666666667     0.419200000000     0.750000000000     0          
Cu       Cu     0.317815000000     0.750000000000     0.175985000000     0          
Cu       Cu     0.182185000000     0.750000000000     0.074015000000     0          
Cu       Cu     0.166666666667     0.580800000000     0.000000000000     0          
Cu       Cu     0.166666666667     0.919200000000     0.000000000000     0          
Cu       Cu     0.317815000000     0.750000000000     0.425985000000     0          
Cu       Cu     0.182185000000     0.750000000000     0.324015000000     0          
Cu       Cu     0.166666666667     0.580800000000     0.250000000000     0          
Cu       Cu     0.166666666667     0.919200000000     0.250000000000     0          
Cu       Cu     0.317815000000     0.750000000000     0.675985000000     0          
Cu       Cu     0.182185000000     0.750000000000     0.574015000000     0          
Cu       Cu     0.166666666667     0.580800000000     0.500000000000     0          
Cu       Cu     0.166666666667     0.919200000000     0.500000000000     0          
Cu       Cu     0.317815000000     0.750000000000     0.925985000000     0          
Cu       Cu     0.182185000000     0.750000000000     0.824015000000     0          
Cu       Cu     0.166666666667     0.580800000000     0.750000000000     0          
Cu       Cu     0.166666666667     0.919200000000     0.750000000000     0          
Cu       Cu     0.484481666667     0.250000000000     0.175985000000     0          
Cu       Cu     0.348851666667     0.250000000000     0.074015000000     0          
Cu       Cu     0.333333333333     0.080800000000     0.000000000000     0          
Cu       Cu     0.333333333333     0.419200000000     0.000000000000     0          
Cu       Cu     0.484481666667     0.250000000000     0.425985000000     0          
Cu       Cu     0.348851666667     0.250000000000     0.324015000000     0          
Cu       Cu     0.333333333333     0.080800000000     0.250000000000     0          
Cu       Cu     0.333333333333     0.419200000000     0.250000000000     0          
Cu       Cu     0.484481666667     0.250000000000     0.675985000000     0          
Cu       Cu     0.348851666667     0.250000000000     0.574015000000     0          
Cu       Cu     0.333333333333     0.080800000000     0.500000000000     0          
Cu       Cu     0.333333333333     0.419200000000     0.500000000000     0          
Cu       Cu     0.484481666667     0.250000000000     0.925985000000     0          
Cu       Cu     0.348851666667     0.250000000000     0.824015000000     0          
Cu       Cu     0.333333333333     0.080800000000     0.750000000000     0          
Cu       Cu     0.333333333333     0.419200000000     0.750000000000     0          
Cu       Cu     0.484481666667     0.750000000000     0.175985000000     0          
Cu       Cu     0.348851666667     0.750000000000     0.074015000000     0          
Cu       Cu     0.333333333333     0.580800000000     0.000000000000     0          
Cu       Cu     0.333333333333     0.919200000000     0.000000000000     0          
Cu       Cu     0.484481666667     0.750000000000     0.425985000000     0          
Cu       Cu     0.348851666667     0.750000000000     0.324015000000     0          
Cu       Cu     0.333333333333     0.580800000000     0.250000000000     0          
Cu       Cu     0.333333333333     0.919200000000     0.250000000000     0          
Cu       Cu     0.484481666667     0.750000000000     0.675985000000     0          
Cu       Cu     0.348851666667     0.750000000000     0.574015000000     0          
Cu       Cu     0.333333333333     0.580800000000     0.500000000000     0          
Cu       Cu     0.333333333333     0.919200000000     0.500000000000     0          
Cu       Cu     0.484481666667     0.750000000000     0.925985000000     0          
Cu       Cu     0.348851666667     0.750000000000     0.824015000000     0          
Cu       Cu     0.333333333333     0.580800000000     0.750000000000     0          
Cu       Cu     0.333333333333     0.919200000000     0.750000000000     0          
Cu       Cu     0.651148333333     0.250000000000     0.175985000000     0          
Cu       Cu     0.515518333333     0.250000000000     0.074015000000     0          
Cu       Cu     0.500000000000     0.080800000000     0.000000000000     0          
Cu       Cu     0.500000000000     0.419200000000     0.000000000000     0          
Cu       Cu     0.651148333333     0.250000000000     0.425985000000     0          
Cu       Cu     0.515518333333     0.250000000000     0.324015000000     0          
Cu       Cu     0.500000000000     0.080800000000     0.250000000000     0          
Cu       Cu     0.500000000000     0.419200000000     0.250000000000     0          
Cu       Cu     0.651148333333     0.250000000000     0.675985000000     0          
Cu       Cu     0.515518333333     0.250000000000     0.574015000000     0          
Cu       Cu     0.500000000000     0.080800000000     0.500000000000     0          
Cu       Cu     0.500000000000     0.419200000000     0.500000000000     0          
Cu       Cu     0.651148333333     0.250000000000     0.925985000000     0          
Cu       Cu     0.515518333333     0.250000000000     0.824015000000     0          
Cu       Cu     0.500000000000     0.080800000000     0.750000000000     0          
Cu       Cu     0.500000000000     0.419200000000     0.750000000000     0          
Cu       Cu     0.651148333333     0.750000000000     0.175985000000     0          
Cu       Cu     0.515518333333     0.750000000000     0.074015000000     0          
Cu       Cu     0.500000000000     0.580800000000     0.000000000000     0          
Cu       Cu     0.500000000000     0.919200000000     0.000000000000     0          
Cu       Cu     0.651148333333     0.750000000000     0.425985000000     0          
Cu       Cu     0.515518333333     0.750000000000     0.324015000000     0          
Cu       Cu     0.500000000000     0.580800000000     0.250000000000     0          
Cu       Cu     0.500000000000     0.919200000000     0.250000000000     0          
Cu       Cu     0.651148333333     0.750000000000     0.675985000000     0          
Cu       Cu     0.515518333333     0.750000000000     0.574015000000     0          
Cu       Cu     0.500000000000     0.580800000000     0.500000000000     0          
Cu       Cu     0.500000000000     0.919200000000     0.500000000000     0          
Cu       Cu     0.651148333333     0.750000000000     0.925985000000     0          
Cu       Cu     0.515518333333     0.750000000000     0.824015000000     0          
Cu       Cu     0.500000000000     0.580800000000     0.750000000000     0          
Cu       Cu     0.500000000000     0.919200000000     0.750000000000     0          
Cu       Cu     0.817815000000     0.250000000000     0.175985000000     0          
Cu       Cu     0.682185000000     0.250000000000     0.074015000000     0          
Cu       Cu     0.666666666667     0.080800000000     0.000000000000     0          
Cu       Cu     0.666666666667     0.419200000000     0.000000000000     0          
Cu       Cu     0.817815000000     0.250000000000     0.425985000000     0          
Cu       Cu     0.682185000000     0.250000000000     0.324015000000     0          
Cu       Cu     0.666666666667     0.080800000000     0.250000000000     0          
Cu       Cu     0.666666666667     0.419200000000     0.250000000000     0          
Cu       Cu     0.817815000000     0.250000000000     0.675985000000     0          
Cu       Cu     0.682185000000     0.250000000000     0.574015000000     0          
Cu       Cu     0.666666666667     0.080800000000     0.500000000000     0          
Cu       Cu     0.666666666667     0.419200000000     0.500000000000     0          
Cu       Cu     0.817815000000     0.250000000000     0.925985000000     0          
Cu       Cu     0.682185000000     0.250000000000     0.824015000000     0          
Cu       Cu     0.666666666667     0.080800000000     0.750000000000     0          
Cu       Cu     0.666666666667     0.419200000000     0.750000000000     0          
Cu       Cu     0.817815000000     0.750000000000     0.175985000000     0          
Cu       Cu     0.682185000000     0.750000000000     0.074015000000     0          
Cu       Cu     0.666666666667     0.580800000000     0.000000000000     0          
Cu       Cu     0.666666666667     0.919200000000     0.000000000000     0          
Cu       Cu     0.817815000000     0.750000000000     0.425985000000     0          
Cu       Cu     0.682185000000     0.750000000000     0.324015000000     0          
Cu       Cu     0.666666666667     0.580800000000     0.250000000000     0          
Cu       Cu     0.666666666667     0.919200000000     0.250000000000     0          
Cu       Cu     0.817815000000     0.750000000000     0.675985000000     0          
Cu       Cu     0.682185000000     0.750000000000     0.574015000000     0          
Cu       Cu     0.666666666667     0.580800000000     0.500000000000     0          
Cu       Cu     0.666666666667     0.919200000000     0.500000000000     0          
Cu       Cu     0.817815000000     0.750000000000     0.925985000000     0          
Cu       Cu     0.682185000000     0.750000000000     0.824015000000     0          
Cu       Cu     0.666666666667     0.580800000000     0.750000000000     0          
Cu       Cu     0.666666666667     0.919200000000     0.750000000000     0          
Cu       Cu     0.984481666667     0.250000000000     0.175985000000     0          
Cu       Cu     0.848851666667     0.250000000000     0.074015000000     0          
Cu       Cu     0.833333333333     0.080800000000     0.000000000000     0          
Cu       Cu     0.833333333333     0.419200000000     0.000000000000     0          
Cu       Cu     0.984481666667     0.250000000000     0.425985000000     0          
Cu       Cu     0.848851666667     0.250000000000     0.324015000000     0          
Cu       Cu     0.833333333333     0.080800000000     0.250000000000     0          
Cu       Cu     0.833333333333     0.419200000000     0.250000000000     0          
Cu       Cu     0.984481666667     0.250000000000     0.675985000000     0          
Cu       Cu     0.848851666667     0.250000000000     0.574015000000     0          
Cu       Cu     0.833333333333     0.080800000000     0.500000000000     0          
Cu       Cu     0.833333333333     0.419200000000     0.500000000000     0          
Cu       Cu     0.984481666667     0.250000000000     0.925985000000     0          
Cu       Cu     0.848851666667     0.250000000000     0.824015000000     0          
Cu       Cu     0.833333333333     0.080800000000     0.750000000000     0          
Cu       Cu     0.833333333333     0.419200000000     0.750000000000     0          
Cu       Cu     0.984481666667     0.750000000000     0.175985000000     0          
Cu       Cu     0.848851666667     0.750000000000     0.074015000000     0          
Cu       Cu     0.833333333333     0.580800000000     0.000000000000     0          
Cu       Cu     0.833333333333     0.919200000000     0.000000000000     0          
Cu       Cu     0.984481666667     0.750000000000     0.425985000000     0          
Cu       Cu     0.848851666667     0.750000000000     0.324015000000     0          
Cu       Cu     0.833333333333     0.580800000000     0.250000000000     0          
Cu       Cu     0.833333333333     0.919200000000     0.250000000000     0          
Cu       Cu     0.984481666667     0.750000000000     0.675985000000     0          
Cu       Cu     0.848851666667     0.750000000000     0.574015000000     0          
Cu       Cu     0.833333333333     0.580800000000     0.500000000000     0          
Cu       Cu     0.833333333333     0.919200000000     0.500000000000     0          
Cu       Cu     0.984481666667     0.750000000000     0.925985000000     0          
Cu       Cu     0.848851666667     0.750000000000     0.824015000000     0          
Cu       Cu     0.833333333333     0.580800000000     0.750000000000     0          
Cu       Cu     0.833333333333     0.919200000000     0.750000000000     0          


