data_[CoreMOF]XEXMEU_clean

_audit_creation_method RASPA-1.0
_audit_creation_date 2025-1-23
_audit_author_name ''

_cell_length_a    28.182
_cell_length_b    37.7726
_cell_length_c    50.602
_cell_angle_alpha 90
_cell_angle_beta  90
_cell_angle_gamma 95.47
_cell_volume      53620.9

_symmetry_cell_setting          triclinic
_symmetry_space_group_name_Hall 'P 1'
_symmetry_space_group_name_H-M  'P 1'
_symmetry_Int_Tables_number     1

_symmetry_equiv_pos_as_xyz 'x,y,z'

loop_
_atom_site_label
_atom_site_type_symbol
_atom_site_fract_x
_atom_site_fract_y
_atom_site_fract_z
_atom_site_charge
Zn1      Zn     0.020600000000     0.280125000000     0.266660000000     0          
Zn2      Zn     0.179400000000     0.469875000000     0.016660000000     0          
Zn3      Zn     0.179400000000     0.219875000000     0.233340000000     0          
Zn4      Zn     0.020600000000     0.030125000000     0.483340000000     0          
H1       H      0.095060000000     0.455300000000     0.053700000000     0          
H2       H      0.078160000000     0.422650000000     0.092100000000     0          
H3       H      0.197400000000     0.372700000000     0.079150000000     0          
H4       H      0.011680000000     0.407750000000     0.042150000000     0          
H5       H      0.025400000000     0.300400000000     0.128450000000     0          
H6       H      0.014560000000     0.267200000000     0.167400000000     0          
H7       H      0.005900000000     0.353700000000     0.216250000000     0          
H8       H      0.013420000000     0.388050000000     0.177900000000     0          
H9       H      0.104940000000     0.294700000000     0.303700000000     0          
H10      H      0.121840000000     0.327350000000     0.342100000000     0          
H11      H      0.002600000000     0.377300000000     0.329150000000     0          
H12      H      0.188320000000     0.342250000000     0.292150000000     0          
H13      H      0.174600000000     0.449600000000     0.378450000000     0          
H14      H      0.185440000000     0.482800000000     0.417400000000     0          
H15      H      0.194100000000     0.396300000000     0.466250000000     0          
H16      H      0.186580000000     0.361950000000     0.427900000000     0          
H17      H      0.104940000000     0.044700000000     0.446300000000     0          
H18      H      0.121840000000     0.077350000000     0.407900000000     0          
H19      H      0.002600000000     0.127300000000     0.420850000000     0          
H20      H      0.188320000000     0.092250000000     0.457850000000     0          
H21      H      0.174600000000     0.199600000000     0.371550000000     0          
H22      H      0.185440000000     0.232800000000     0.332600000000     0          
H23      H      0.194100000000     0.146300000000     0.283750000000     0          
H24      H      0.186580000000     0.111950000000     0.322100000000     0          
H25      H      0.095060000000     0.205300000000     0.196300000000     0          
H26      H      0.078160000000     0.172650000000     0.157900000000     0          
H27      H      0.197400000000     0.122700000000     0.170850000000     0          
H28      H      0.011680000000     0.157750000000     0.207850000000     0          
H29      H      0.025400000000     0.050400000000     0.121550000000     0          
H30      H      0.014560000000     0.017200000000     0.082600000000     0          
H31      H      0.005900000000     0.103700000000     0.033750000000     0          
H32      H      0.013420000000     0.138050000000     0.072100000000     0          
C1       C      0.116260000000     0.438700000000     0.059305000000     0          
C2       C      0.105980000000     0.419500000000     0.082065000000     0          
C3       C      0.137460000000     0.395550000000     0.089880000000     0          
C4       C      0.176600000000     0.390100000000     0.074545000000     0          
C5       C      0.184240000000     0.410650000000     0.052550000000     0          
C6       C      0.090180000000     0.351100000000     0.116045000000     0          
C7       C      0.084780000000     0.330550000000     0.140850000000     0          
C8       C      0.117740000000     0.336700000000     0.161610000000     0          
C9       C      0.156940000000     0.363400000000     0.159085000000     0          
C10      C      0.164120000000     0.383600000000     0.134405000000     0          
C11      C      0.046940000000     0.304750000000     0.142795000000     0          
C12      C      0.040680000000     0.285000000000     0.166050000000     0          
C13      C      0.071460000000     0.290650000000     0.187140000000     0          
C14      C      0.112240000000     0.316100000000     0.185130000000     0          
C15      C      0.147700000000     0.322000000000     0.204990000000     0          
C16      C      0.183700000000     0.349000000000     0.202255000000     0          
C17      C      0.188220000000     0.369550000000     0.179355000000     0          
C18      C      0.055040000000     0.272400000000     0.212415000000     0          
C19      C      0.154880000000     0.296450000000     0.227305000000     0          
C20      C      0.083740000000     0.311300000000     0.309305000000     0          
C21      C      0.094020000000     0.330500000000     0.332065000000     0          
C22      C      0.062540000000     0.354450000000     0.339880000000     0          
C23      C      0.023400000000     0.359900000000     0.324545000000     0          
C24      C      0.015760000000     0.339350000000     0.302550000000     0          
C25      C      0.109820000000     0.398900000000     0.366045000000     0          
C26      C      0.115220000000     0.419450000000     0.390850000000     0          
C27      C      0.082260000000     0.413300000000     0.411610000000     0          
C28      C      0.043060000000     0.386600000000     0.409085000000     0          
C29      C      0.035880000000     0.366400000000     0.384405000000     0          
C30      C      0.153060000000     0.445250000000     0.392795000000     0          
C31      C      0.159320000000     0.465000000000     0.416050000000     0          
C32      C      0.128540000000     0.459350000000     0.437140000000     0          
C33      C      0.087760000000     0.433900000000     0.435130000000     0          
C34      C      0.052300000000     0.428000000000     0.454990000000     0          
C35      C      0.016300000000     0.401000000000     0.452255000000     0          
C36      C      0.011780000000     0.380450000000     0.429355000000     0          
C37      C      0.144960000000     0.477600000000     0.462415000000     0          
C38      C      0.045120000000     0.453550000000     0.477305000000     0          
C39      C      0.083740000000     0.061300000000     0.440695000000     0          
C40      C      0.094020000000     0.080500000000     0.417935000000     0          
C41      C      0.062540000000     0.104450000000     0.410120000000     0          
C42      C      0.023400000000     0.109900000000     0.425455000000     0          
C43      C      0.015760000000     0.089350000000     0.447450000000     0          
C44      C      0.109820000000     0.148900000000     0.383955000000     0          
C45      C      0.115220000000     0.169450000000     0.359150000000     0          
C46      C      0.082260000000     0.163300000000     0.338390000000     0          
C47      C      0.043060000000     0.136600000000     0.340915000000     0          
C48      C      0.035880000000     0.116400000000     0.365595000000     0          
C49      C      0.153060000000     0.195250000000     0.357205000000     0          
C50      C      0.159320000000     0.215000000000     0.333950000000     0          
C51      C      0.128540000000     0.209350000000     0.312860000000     0          
C52      C      0.087760000000     0.183900000000     0.314870000000     0          
C53      C      0.052300000000     0.178000000000     0.295010000000     0          
C54      C      0.016300000000     0.151000000000     0.297745000000     0          
C55      C      0.011780000000     0.130450000000     0.320645000000     0          
C56      C      0.144960000000     0.227600000000     0.287585000000     0          
C57      C      0.045120000000     0.203550000000     0.272695000000     0          
C58      C      0.116260000000     0.188700000000     0.190695000000     0          
C59      C      0.105980000000     0.169500000000     0.167935000000     0          
C60      C      0.137460000000     0.145550000000     0.160120000000     0          
C61      C      0.176600000000     0.140100000000     0.175455000000     0          
C62      C      0.184240000000     0.160650000000     0.197450000000     0          
C63      C      0.090180000000     0.101100000000     0.133955000000     0          
C64      C      0.084780000000     0.080550000000     0.109150000000     0          
C65      C      0.117740000000     0.086700000000     0.088390000000     0          
C66      C      0.156940000000     0.113400000000     0.090915000000     0          
C67      C      0.164120000000     0.133600000000     0.115595000000     0          
C68      C      0.046940000000     0.054750000000     0.107205000000     0          
C69      C      0.040680000000     0.035000000000     0.083950000000     0          
C70      C      0.071460000000     0.040650000000     0.062860000000     0          
C71      C      0.112240000000     0.066100000000     0.064870000000     0          
C72      C      0.147700000000     0.072000000000     0.045010000000     0          
C73      C      0.183700000000     0.099000000000     0.047745000000     0          
C74      C      0.188220000000     0.119550000000     0.070645000000     0          
C75      C      0.055040000000     0.022400000000     0.037585000000     0          
C76      C      0.154880000000     0.046450000000     0.022695000000     0          
N1       N      0.155180000000     0.434725000000     0.044760000000     0          
N2       N      0.130240000000     0.376450000000     0.114515000000     0          
N3       N      0.044820000000     0.315275000000     0.294760000000     0          
N4       N      0.069760000000     0.373550000000     0.364515000000     0          
N5       N      0.044820000000     0.065275000000     0.455240000000     0          
N6       N      0.069760000000     0.123550000000     0.385485000000     0          
N7       N      0.155180000000     0.184725000000     0.205240000000     0          
N8       N      0.130240000000     0.126450000000     0.135485000000     0          
O1       O      0.058040000000     0.291000000000     0.233175000000     0          
O2       O      0.035720000000     0.241160000000     0.210420000000     0          
O3       O      0.148240000000     0.263850000000     0.221465000000     0          
O4       O      0.170980000000     0.309150000000     0.248575000000     0          
O5       O      0.063080000000     0.347110000000     0.097415000000     0          
O6       O      0.197480000000     0.405950000000     0.130940000000     0          
O7       O      0.141960000000     0.459000000000     0.483175000000     0          
O8       O      0.164280000000     0.008840000000     0.460420000000     0          
O9       O      0.051760000000     0.486150000000     0.471465000000     0          
O10      O      0.029020000000     0.440850000000     0.498575000000     0          
O11      O      0.136920000000     0.402890000000     0.347415000000     0          
O12      O      0.002520000000     0.344050000000     0.380940000000     0          
O13      O      0.141960000000     0.209000000000     0.266825000000     0          
O14      O      0.164280000000     0.258840000000     0.289580000000     0          
O15      O      0.051760000000     0.236150000000     0.278535000000     0          
O16      O      0.029020000000     0.190850000000     0.251425000000     0          
O17      O      0.136920000000     0.152890000000     0.402585000000     0          
O18      O      0.002520000000     0.094050000000     0.369060000000     0          
O19      O      0.058040000000     0.041000000000     0.016825000000     0          
O20      O      0.035720000000     0.491160000000     0.039580000000     0          
O21      O      0.148240000000     0.013850000000     0.028535000000     0          
O22      O      0.170980000000     0.059150000000     0.001425000000     0          
O23      O      0.063080000000     0.097110000000     0.152585000000     0          
O24      O      0.197480000000     0.155950000000     0.119060000000     0          
Zn1      Zn     0.020600000000     0.280125000000     0.766660000000     0          
Zn2      Zn     0.179400000000     0.469875000000     0.516660000000     0          
Zn3      Zn     0.179400000000     0.219875000000     0.733340000000     0          
Zn4      Zn     0.020600000000     0.030125000000     0.983340000000     0          
H1       H      0.095060000000     0.455300000000     0.553700000000     0          
H2       H      0.078160000000     0.422650000000     0.592100000000     0          
H3       H      0.197400000000     0.372700000000     0.579150000000     0          
H4       H      0.011680000000     0.407750000000     0.542150000000     0          
H5       H      0.025400000000     0.300400000000     0.628450000000     0          
H6       H      0.014560000000     0.267200000000     0.667400000000     0          
H7       H      0.005900000000     0.353700000000     0.716250000000     0          
H8       H      0.013420000000     0.388050000000     0.677900000000     0          
H9       H      0.104940000000     0.294700000000     0.803700000000     0          
H10      H      0.121840000000     0.327350000000     0.842100000000     0          
H11      H      0.002600000000     0.377300000000     0.829150000000     0          
H12      H      0.188320000000     0.342250000000     0.792150000000     0          
H13      H      0.174600000000     0.449600000000     0.878450000000     0          
H14      H      0.185440000000     0.482800000000     0.917400000000     0          
H15      H      0.194100000000     0.396300000000     0.966250000000     0          
H16      H      0.186580000000     0.361950000000     0.927900000000     0          
H17      H      0.104940000000     0.044700000000     0.946300000000     0          
H18      H      0.121840000000     0.077350000000     0.907900000000     0          
H19      H      0.002600000000     0.127300000000     0.920850000000     0          
H20      H      0.188320000000     0.092250000000     0.957850000000     0          
H21      H      0.174600000000     0.199600000000     0.871550000000     0          
H22      H      0.185440000000     0.232800000000     0.832600000000     0          
H23      H      0.194100000000     0.146300000000     0.783750000000     0          
H24      H      0.186580000000     0.111950000000     0.822100000000     0          
H25      H      0.095060000000     0.205300000000     0.696300000000     0          
H26      H      0.078160000000     0.172650000000     0.657900000000     0          
H27      H      0.197400000000     0.122700000000     0.670850000000     0          
H28      H      0.011680000000     0.157750000000     0.707850000000     0          
H29      H      0.025400000000     0.050400000000     0.621550000000     0          
H30      H      0.014560000000     0.017200000000     0.582600000000     0          
H31      H      0.005900000000     0.103700000000     0.533750000000     0          
H32      H      0.013420000000     0.138050000000     0.572100000000     0          
C1       C      0.116260000000     0.438700000000     0.559305000000     0          
C2       C      0.105980000000     0.419500000000     0.582065000000     0          
C3       C      0.137460000000     0.395550000000     0.589880000000     0          
C4       C      0.176600000000     0.390100000000     0.574545000000     0          
C5       C      0.184240000000     0.410650000000     0.552550000000     0          
C6       C      0.090180000000     0.351100000000     0.616045000000     0          
C7       C      0.084780000000     0.330550000000     0.640850000000     0          
C8       C      0.117740000000     0.336700000000     0.661610000000     0          
C9       C      0.156940000000     0.363400000000     0.659085000000     0          
C10      C      0.164120000000     0.383600000000     0.634405000000     0          
C11      C      0.046940000000     0.304750000000     0.642795000000     0          
C12      C      0.040680000000     0.285000000000     0.666050000000     0          
C13      C      0.071460000000     0.290650000000     0.687140000000     0          
C14      C      0.112240000000     0.316100000000     0.685130000000     0          
C15      C      0.147700000000     0.322000000000     0.704990000000     0          
C16      C      0.183700000000     0.349000000000     0.702255000000     0          
C17      C      0.188220000000     0.369550000000     0.679355000000     0          
C18      C      0.055040000000     0.272400000000     0.712415000000     0          
C19      C      0.154880000000     0.296450000000     0.727305000000     0          
C20      C      0.083740000000     0.311300000000     0.809305000000     0          
C21      C      0.094020000000     0.330500000000     0.832065000000     0          
C22      C      0.062540000000     0.354450000000     0.839880000000     0          
C23      C      0.023400000000     0.359900000000     0.824545000000     0          
C24      C      0.015760000000     0.339350000000     0.802550000000     0          
C25      C      0.109820000000     0.398900000000     0.866045000000     0          
C26      C      0.115220000000     0.419450000000     0.890850000000     0          
C27      C      0.082260000000     0.413300000000     0.911610000000     0          
C28      C      0.043060000000     0.386600000000     0.909085000000     0          
C29      C      0.035880000000     0.366400000000     0.884405000000     0          
C30      C      0.153060000000     0.445250000000     0.892795000000     0          
C31      C      0.159320000000     0.465000000000     0.916050000000     0          
C32      C      0.128540000000     0.459350000000     0.937140000000     0          
C33      C      0.087760000000     0.433900000000     0.935130000000     0          
C34      C      0.052300000000     0.428000000000     0.954990000000     0          
C35      C      0.016300000000     0.401000000000     0.952255000000     0          
C36      C      0.011780000000     0.380450000000     0.929355000000     0          
C37      C      0.144960000000     0.477600000000     0.962415000000     0          
C38      C      0.045120000000     0.453550000000     0.977305000000     0          
C39      C      0.083740000000     0.061300000000     0.940695000000     0          
C40      C      0.094020000000     0.080500000000     0.917935000000     0          
C41      C      0.062540000000     0.104450000000     0.910120000000     0          
C42      C      0.023400000000     0.109900000000     0.925455000000     0          
C43      C      0.015760000000     0.089350000000     0.947450000000     0          
C44      C      0.109820000000     0.148900000000     0.883955000000     0          
C45      C      0.115220000000     0.169450000000     0.859150000000     0          
C46      C      0.082260000000     0.163300000000     0.838390000000     0          
C47      C      0.043060000000     0.136600000000     0.840915000000     0          
C48      C      0.035880000000     0.116400000000     0.865595000000     0          
C49      C      0.153060000000     0.195250000000     0.857205000000     0          
C50      C      0.159320000000     0.215000000000     0.833950000000     0          
C51      C      0.128540000000     0.209350000000     0.812860000000     0          
C52      C      0.087760000000     0.183900000000     0.814870000000     0          
C53      C      0.052300000000     0.178000000000     0.795010000000     0          
C54      C      0.016300000000     0.151000000000     0.797745000000     0          
C55      C      0.011780000000     0.130450000000     0.820645000000     0          
C56      C      0.144960000000     0.227600000000     0.787585000000     0          
C57      C      0.045120000000     0.203550000000     0.772695000000     0          
C58      C      0.116260000000     0.188700000000     0.690695000000     0          
C59      C      0.105980000000     0.169500000000     0.667935000000     0          
C60      C      0.137460000000     0.145550000000     0.660120000000     0          
C61      C      0.176600000000     0.140100000000     0.675455000000     0          
C62      C      0.184240000000     0.160650000000     0.697450000000     0          
C63      C      0.090180000000     0.101100000000     0.633955000000     0          
C64      C      0.084780000000     0.080550000000     0.609150000000     0          
C65      C      0.117740000000     0.086700000000     0.588390000000     0          
C66      C      0.156940000000     0.113400000000     0.590915000000     0          
C67      C      0.164120000000     0.133600000000     0.615595000000     0          
C68      C      0.046940000000     0.054750000000     0.607205000000     0          
C69      C      0.040680000000     0.035000000000     0.583950000000     0          
C70      C      0.071460000000     0.040650000000     0.562860000000     0          
C71      C      0.112240000000     0.066100000000     0.564870000000     0          
C72      C      0.147700000000     0.072000000000     0.545010000000     0          
C73      C      0.183700000000     0.099000000000     0.547745000000     0          
C74      C      0.188220000000     0.119550000000     0.570645000000     0          
C75      C      0.055040000000     0.022400000000     0.537585000000     0          
C76      C      0.154880000000     0.046450000000     0.522695000000     0          
N1       N      0.155180000000     0.434725000000     0.544760000000     0          
N2       N      0.130240000000     0.376450000000     0.614515000000     0          
N3       N      0.044820000000     0.315275000000     0.794760000000     0          
N4       N      0.069760000000     0.373550000000     0.864515000000     0          
N5       N      0.044820000000     0.065275000000     0.955240000000     0          
N6       N      0.069760000000     0.123550000000     0.885485000000     0          
N7       N      0.155180000000     0.184725000000     0.705240000000     0          
N8       N      0.130240000000     0.126450000000     0.635485000000     0          
O1       O      0.058040000000     0.291000000000     0.733175000000     0          
O2       O      0.035720000000     0.241160000000     0.710420000000     0          
O3       O      0.148240000000     0.263850000000     0.721465000000     0          
O4       O      0.170980000000     0.309150000000     0.748575000000     0          
O5       O      0.063080000000     0.347110000000     0.597415000000     0          
O6       O      0.197480000000     0.405950000000     0.630940000000     0          
O7       O      0.141960000000     0.459000000000     0.983175000000     0          
O8       O      0.164280000000     0.008840000000     0.960420000000     0          
O9       O      0.051760000000     0.486150000000     0.971465000000     0          
O10      O      0.029020000000     0.440850000000     0.998575000000     0          
O11      O      0.136920000000     0.402890000000     0.847415000000     0          
O12      O      0.002520000000     0.344050000000     0.880940000000     0          
O13      O      0.141960000000     0.209000000000     0.766825000000     0          
O14      O      0.164280000000     0.258840000000     0.789580000000     0          
O15      O      0.051760000000     0.236150000000     0.778535000000     0          
O16      O      0.029020000000     0.190850000000     0.751425000000     0          
O17      O      0.136920000000     0.152890000000     0.902585000000     0          
O18      O      0.002520000000     0.094050000000     0.869060000000     0          
O19      O      0.058040000000     0.041000000000     0.516825000000     0          
O20      O      0.035720000000     0.491160000000     0.539580000000     0          
O21      O      0.148240000000     0.013850000000     0.528535000000     0          
O22      O      0.170980000000     0.059150000000     0.501425000000     0          
O23      O      0.063080000000     0.097110000000     0.652585000000     0          
O24      O      0.197480000000     0.155950000000     0.619060000000     0          
Zn1      Zn     0.020600000000     0.780125000000     0.266660000000     0          
Zn2      Zn     0.179400000000     0.969875000000     0.016660000000     0          
Zn3      Zn     0.179400000000     0.719875000000     0.233340000000     0          
Zn4      Zn     0.020600000000     0.530125000000     0.483340000000     0          
H1       H      0.095060000000     0.955300000000     0.053700000000     0          
H2       H      0.078160000000     0.922650000000     0.092100000000     0          
H3       H      0.197400000000     0.872700000000     0.079150000000     0          
H4       H      0.011680000000     0.907750000000     0.042150000000     0          
H5       H      0.025400000000     0.800400000000     0.128450000000     0          
H6       H      0.014560000000     0.767200000000     0.167400000000     0          
H7       H      0.005900000000     0.853700000000     0.216250000000     0          
H8       H      0.013420000000     0.888050000000     0.177900000000     0          
H9       H      0.104940000000     0.794700000000     0.303700000000     0          
H10      H      0.121840000000     0.827350000000     0.342100000000     0          
H11      H      0.002600000000     0.877300000000     0.329150000000     0          
H12      H      0.188320000000     0.842250000000     0.292150000000     0          
H13      H      0.174600000000     0.949600000000     0.378450000000     0          
H14      H      0.185440000000     0.982800000000     0.417400000000     0          
H15      H      0.194100000000     0.896300000000     0.466250000000     0          
H16      H      0.186580000000     0.861950000000     0.427900000000     0          
H17      H      0.104940000000     0.544700000000     0.446300000000     0          
H18      H      0.121840000000     0.577350000000     0.407900000000     0          
H19      H      0.002600000000     0.627300000000     0.420850000000     0          
H20      H      0.188320000000     0.592250000000     0.457850000000     0          
H21      H      0.174600000000     0.699600000000     0.371550000000     0          
H22      H      0.185440000000     0.732800000000     0.332600000000     0          
H23      H      0.194100000000     0.646300000000     0.283750000000     0          
H24      H      0.186580000000     0.611950000000     0.322100000000     0          
H25      H      0.095060000000     0.705300000000     0.196300000000     0          
H26      H      0.078160000000     0.672650000000     0.157900000000     0          
H27      H      0.197400000000     0.622700000000     0.170850000000     0          
H28      H      0.011680000000     0.657750000000     0.207850000000     0          
H29      H      0.025400000000     0.550400000000     0.121550000000     0          
H30      H      0.014560000000     0.517200000000     0.082600000000     0          
H31      H      0.005900000000     0.603700000000     0.033750000000     0          
H32      H      0.013420000000     0.638050000000     0.072100000000     0          
C1       C      0.116260000000     0.938700000000     0.059305000000     0          
C2       C      0.105980000000     0.919500000000     0.082065000000     0          
C3       C      0.137460000000     0.895550000000     0.089880000000     0          
C4       C      0.176600000000     0.890100000000     0.074545000000     0          
C5       C      0.184240000000     0.910650000000     0.052550000000     0          
C6       C      0.090180000000     0.851100000000     0.116045000000     0          
C7       C      0.084780000000     0.830550000000     0.140850000000     0          
C8       C      0.117740000000     0.836700000000     0.161610000000     0          
C9       C      0.156940000000     0.863400000000     0.159085000000     0          
C10      C      0.164120000000     0.883600000000     0.134405000000     0          
C11      C      0.046940000000     0.804750000000     0.142795000000     0          
C12      C      0.040680000000     0.785000000000     0.166050000000     0          
C13      C      0.071460000000     0.790650000000     0.187140000000     0          
C14      C      0.112240000000     0.816100000000     0.185130000000     0          
C15      C      0.147700000000     0.822000000000     0.204990000000     0          
C16      C      0.183700000000     0.849000000000     0.202255000000     0          
C17      C      0.188220000000     0.869550000000     0.179355000000     0          
C18      C      0.055040000000     0.772400000000     0.212415000000     0          
C19      C      0.154880000000     0.796450000000     0.227305000000     0          
C20      C      0.083740000000     0.811300000000     0.309305000000     0          
C21      C      0.094020000000     0.830500000000     0.332065000000     0          
C22      C      0.062540000000     0.854450000000     0.339880000000     0          
C23      C      0.023400000000     0.859900000000     0.324545000000     0          
C24      C      0.015760000000     0.839350000000     0.302550000000     0          
C25      C      0.109820000000     0.898900000000     0.366045000000     0          
C26      C      0.115220000000     0.919450000000     0.390850000000     0          
C27      C      0.082260000000     0.913300000000     0.411610000000     0          
C28      C      0.043060000000     0.886600000000     0.409085000000     0          
C29      C      0.035880000000     0.866400000000     0.384405000000     0          
C30      C      0.153060000000     0.945250000000     0.392795000000     0          
C31      C      0.159320000000     0.965000000000     0.416050000000     0          
C32      C      0.128540000000     0.959350000000     0.437140000000     0          
C33      C      0.087760000000     0.933900000000     0.435130000000     0          
C34      C      0.052300000000     0.928000000000     0.454990000000     0          
C35      C      0.016300000000     0.901000000000     0.452255000000     0          
C36      C      0.011780000000     0.880450000000     0.429355000000     0          
C37      C      0.144960000000     0.977600000000     0.462415000000     0          
C38      C      0.045120000000     0.953550000000     0.477305000000     0          
C39      C      0.083740000000     0.561300000000     0.440695000000     0          
C40      C      0.094020000000     0.580500000000     0.417935000000     0          
C41      C      0.062540000000     0.604450000000     0.410120000000     0          
C42      C      0.023400000000     0.609900000000     0.425455000000     0          
C43      C      0.015760000000     0.589350000000     0.447450000000     0          
C44      C      0.109820000000     0.648900000000     0.383955000000     0          
C45      C      0.115220000000     0.669450000000     0.359150000000     0          
C46      C      0.082260000000     0.663300000000     0.338390000000     0          
C47      C      0.043060000000     0.636600000000     0.340915000000     0          
C48      C      0.035880000000     0.616400000000     0.365595000000     0          
C49      C      0.153060000000     0.695250000000     0.357205000000     0          
C50      C      0.159320000000     0.715000000000     0.333950000000     0          
C51      C      0.128540000000     0.709350000000     0.312860000000     0          
C52      C      0.087760000000     0.683900000000     0.314870000000     0          
C53      C      0.052300000000     0.678000000000     0.295010000000     0          
C54      C      0.016300000000     0.651000000000     0.297745000000     0          
C55      C      0.011780000000     0.630450000000     0.320645000000     0          
C56      C      0.144960000000     0.727600000000     0.287585000000     0          
C57      C      0.045120000000     0.703550000000     0.272695000000     0          
C58      C      0.116260000000     0.688700000000     0.190695000000     0          
C59      C      0.105980000000     0.669500000000     0.167935000000     0          
C60      C      0.137460000000     0.645550000000     0.160120000000     0          
C61      C      0.176600000000     0.640100000000     0.175455000000     0          
C62      C      0.184240000000     0.660650000000     0.197450000000     0          
C63      C      0.090180000000     0.601100000000     0.133955000000     0          
C64      C      0.084780000000     0.580550000000     0.109150000000     0          
C65      C      0.117740000000     0.586700000000     0.088390000000     0          
C66      C      0.156940000000     0.613400000000     0.090915000000     0          
C67      C      0.164120000000     0.633600000000     0.115595000000     0          
C68      C      0.046940000000     0.554750000000     0.107205000000     0          
C69      C      0.040680000000     0.535000000000     0.083950000000     0          
C70      C      0.071460000000     0.540650000000     0.062860000000     0          
C71      C      0.112240000000     0.566100000000     0.064870000000     0          
C72      C      0.147700000000     0.572000000000     0.045010000000     0          
C73      C      0.183700000000     0.599000000000     0.047745000000     0          
C74      C      0.188220000000     0.619550000000     0.070645000000     0          
C75      C      0.055040000000     0.522400000000     0.037585000000     0          
C76      C      0.154880000000     0.546450000000     0.022695000000     0          
N1       N      0.155180000000     0.934725000000     0.044760000000     0          
N2       N      0.130240000000     0.876450000000     0.114515000000     0          
N3       N      0.044820000000     0.815275000000     0.294760000000     0          
N4       N      0.069760000000     0.873550000000     0.364515000000     0          
N5       N      0.044820000000     0.565275000000     0.455240000000     0          
N6       N      0.069760000000     0.623550000000     0.385485000000     0          
N7       N      0.155180000000     0.684725000000     0.205240000000     0          
N8       N      0.130240000000     0.626450000000     0.135485000000     0          
O1       O      0.058040000000     0.791000000000     0.233175000000     0          
O2       O      0.035720000000     0.741160000000     0.210420000000     0          
O3       O      0.148240000000     0.763850000000     0.221465000000     0          
O4       O      0.170980000000     0.809150000000     0.248575000000     0          
O5       O      0.063080000000     0.847110000000     0.097415000000     0          
O6       O      0.197480000000     0.905950000000     0.130940000000     0          
O7       O      0.141960000000     0.959000000000     0.483175000000     0          
O8       O      0.164280000000     0.508840000000     0.460420000000     0          
O9       O      0.051760000000     0.986150000000     0.471465000000     0          
O10      O      0.029020000000     0.940850000000     0.498575000000     0          
O11      O      0.136920000000     0.902890000000     0.347415000000     0          
O12      O      0.002520000000     0.844050000000     0.380940000000     0          
O13      O      0.141960000000     0.709000000000     0.266825000000     0          
O14      O      0.164280000000     0.758840000000     0.289580000000     0          
O15      O      0.051760000000     0.736150000000     0.278535000000     0          
O16      O      0.029020000000     0.690850000000     0.251425000000     0          
O17      O      0.136920000000     0.652890000000     0.402585000000     0          
O18      O      0.002520000000     0.594050000000     0.369060000000     0          
O19      O      0.058040000000     0.541000000000     0.016825000000     0          
O20      O      0.035720000000     0.991160000000     0.039580000000     0          
O21      O      0.148240000000     0.513850000000     0.028535000000     0          
O22      O      0.170980000000     0.559150000000     0.001425000000     0          
O23      O      0.063080000000     0.597110000000     0.152585000000     0          
O24      O      0.197480000000     0.655950000000     0.119060000000     0          
Zn1      Zn     0.020600000000     0.780125000000     0.766660000000     0          
Zn2      Zn     0.179400000000     0.969875000000     0.516660000000     0          
Zn3      Zn     0.179400000000     0.719875000000     0.733340000000     0          
Zn4      Zn     0.020600000000     0.530125000000     0.983340000000     0          
H1       H      0.095060000000     0.955300000000     0.553700000000     0          
H2       H      0.078160000000     0.922650000000     0.592100000000     0          
H3       H      0.197400000000     0.872700000000     0.579150000000     0          
H4       H      0.011680000000     0.907750000000     0.542150000000     0          
H5       H      0.025400000000     0.800400000000     0.628450000000     0          
H6       H      0.014560000000     0.767200000000     0.667400000000     0          
H7       H      0.005900000000     0.853700000000     0.716250000000     0          
H8       H      0.013420000000     0.888050000000     0.677900000000     0          
H9       H      0.104940000000     0.794700000000     0.803700000000     0          
H10      H      0.121840000000     0.827350000000     0.842100000000     0          
H11      H      0.002600000000     0.877300000000     0.829150000000     0          
H12      H      0.188320000000     0.842250000000     0.792150000000     0          
H13      H      0.174600000000     0.949600000000     0.878450000000     0          
H14      H      0.185440000000     0.982800000000     0.917400000000     0          
H15      H      0.194100000000     0.896300000000     0.966250000000     0          
H16      H      0.186580000000     0.861950000000     0.927900000000     0          
H17      H      0.104940000000     0.544700000000     0.946300000000     0          
H18      H      0.121840000000     0.577350000000     0.907900000000     0          
H19      H      0.002600000000     0.627300000000     0.920850000000     0          
H20      H      0.188320000000     0.592250000000     0.957850000000     0          
H21      H      0.174600000000     0.699600000000     0.871550000000     0          
H22      H      0.185440000000     0.732800000000     0.832600000000     0          
H23      H      0.194100000000     0.646300000000     0.783750000000     0          
H24      H      0.186580000000     0.611950000000     0.822100000000     0          
H25      H      0.095060000000     0.705300000000     0.696300000000     0          
H26      H      0.078160000000     0.672650000000     0.657900000000     0          
H27      H      0.197400000000     0.622700000000     0.670850000000     0          
H28      H      0.011680000000     0.657750000000     0.707850000000     0          
H29      H      0.025400000000     0.550400000000     0.621550000000     0          
H30      H      0.014560000000     0.517200000000     0.582600000000     0          
H31      H      0.005900000000     0.603700000000     0.533750000000     0          
H32      H      0.013420000000     0.638050000000     0.572100000000     0          
C1       C      0.116260000000     0.938700000000     0.559305000000     0          
C2       C      0.105980000000     0.919500000000     0.582065000000     0          
C3       C      0.137460000000     0.895550000000     0.589880000000     0          
C4       C      0.176600000000     0.890100000000     0.574545000000     0          
C5       C      0.184240000000     0.910650000000     0.552550000000     0          
C6       C      0.090180000000     0.851100000000     0.616045000000     0          
C7       C      0.084780000000     0.830550000000     0.640850000000     0          
C8       C      0.117740000000     0.836700000000     0.661610000000     0          
C9       C      0.156940000000     0.863400000000     0.659085000000     0          
C10      C      0.164120000000     0.883600000000     0.634405000000     0          
C11      C      0.046940000000     0.804750000000     0.642795000000     0          
C12      C      0.040680000000     0.785000000000     0.666050000000     0          
C13      C      0.071460000000     0.790650000000     0.687140000000     0          
C14      C      0.112240000000     0.816100000000     0.685130000000     0          
C15      C      0.147700000000     0.822000000000     0.704990000000     0          
C16      C      0.183700000000     0.849000000000     0.702255000000     0          
C17      C      0.188220000000     0.869550000000     0.679355000000     0          
C18      C      0.055040000000     0.772400000000     0.712415000000     0          
C19      C      0.154880000000     0.796450000000     0.727305000000     0          
C20      C      0.083740000000     0.811300000000     0.809305000000     0          
C21      C      0.094020000000     0.830500000000     0.832065000000     0          
C22      C      0.062540000000     0.854450000000     0.839880000000     0          
C23      C      0.023400000000     0.859900000000     0.824545000000     0          
C24      C      0.015760000000     0.839350000000     0.802550000000     0          
C25      C      0.109820000000     0.898900000000     0.866045000000     0          
C26      C      0.115220000000     0.919450000000     0.890850000000     0          
C27      C      0.082260000000     0.913300000000     0.911610000000     0          
C28      C      0.043060000000     0.886600000000     0.909085000000     0          
C29      C      0.035880000000     0.866400000000     0.884405000000     0          
C30      C      0.153060000000     0.945250000000     0.892795000000     0          
C31      C      0.159320000000     0.965000000000     0.916050000000     0          
C32      C      0.128540000000     0.959350000000     0.937140000000     0          
C33      C      0.087760000000     0.933900000000     0.935130000000     0          
C34      C      0.052300000000     0.928000000000     0.954990000000     0          
C35      C      0.016300000000     0.901000000000     0.952255000000     0          
C36      C      0.011780000000     0.880450000000     0.929355000000     0          
C37      C      0.144960000000     0.977600000000     0.962415000000     0          
C38      C      0.045120000000     0.953550000000     0.977305000000     0          
C39      C      0.083740000000     0.561300000000     0.940695000000     0          
C40      C      0.094020000000     0.580500000000     0.917935000000     0          
C41      C      0.062540000000     0.604450000000     0.910120000000     0          
C42      C      0.023400000000     0.609900000000     0.925455000000     0          
C43      C      0.015760000000     0.589350000000     0.947450000000     0          
C44      C      0.109820000000     0.648900000000     0.883955000000     0          
C45      C      0.115220000000     0.669450000000     0.859150000000     0          
C46      C      0.082260000000     0.663300000000     0.838390000000     0          
C47      C      0.043060000000     0.636600000000     0.840915000000     0          
C48      C      0.035880000000     0.616400000000     0.865595000000     0          
C49      C      0.153060000000     0.695250000000     0.857205000000     0          
C50      C      0.159320000000     0.715000000000     0.833950000000     0          
C51      C      0.128540000000     0.709350000000     0.812860000000     0          
C52      C      0.087760000000     0.683900000000     0.814870000000     0          
C53      C      0.052300000000     0.678000000000     0.795010000000     0          
C54      C      0.016300000000     0.651000000000     0.797745000000     0          
C55      C      0.011780000000     0.630450000000     0.820645000000     0          
C56      C      0.144960000000     0.727600000000     0.787585000000     0          
C57      C      0.045120000000     0.703550000000     0.772695000000     0          
C58      C      0.116260000000     0.688700000000     0.690695000000     0          
C59      C      0.105980000000     0.669500000000     0.667935000000     0          
C60      C      0.137460000000     0.645550000000     0.660120000000     0          
C61      C      0.176600000000     0.640100000000     0.675455000000     0          
C62      C      0.184240000000     0.660650000000     0.697450000000     0          
C63      C      0.090180000000     0.601100000000     0.633955000000     0          
C64      C      0.084780000000     0.580550000000     0.609150000000     0          
C65      C      0.117740000000     0.586700000000     0.588390000000     0          
C66      C      0.156940000000     0.613400000000     0.590915000000     0          
C67      C      0.164120000000     0.633600000000     0.615595000000     0          
C68      C      0.046940000000     0.554750000000     0.607205000000     0          
C69      C      0.040680000000     0.535000000000     0.583950000000     0          
C70      C      0.071460000000     0.540650000000     0.562860000000     0          
C71      C      0.112240000000     0.566100000000     0.564870000000     0          
C72      C      0.147700000000     0.572000000000     0.545010000000     0          
C73      C      0.183700000000     0.599000000000     0.547745000000     0          
C74      C      0.188220000000     0.619550000000     0.570645000000     0          
C75      C      0.055040000000     0.522400000000     0.537585000000     0          
C76      C      0.154880000000     0.546450000000     0.522695000000     0          
N1       N      0.155180000000     0.934725000000     0.544760000000     0          
N2       N      0.130240000000     0.876450000000     0.614515000000     0          
N3       N      0.044820000000     0.815275000000     0.794760000000     0          
N4       N      0.069760000000     0.873550000000     0.864515000000     0          
N5       N      0.044820000000     0.565275000000     0.955240000000     0          
N6       N      0.069760000000     0.623550000000     0.885485000000     0          
N7       N      0.155180000000     0.684725000000     0.705240000000     0          
N8       N      0.130240000000     0.626450000000     0.635485000000     0          
O1       O      0.058040000000     0.791000000000     0.733175000000     0          
O2       O      0.035720000000     0.741160000000     0.710420000000     0          
O3       O      0.148240000000     0.763850000000     0.721465000000     0          
O4       O      0.170980000000     0.809150000000     0.748575000000     0          
O5       O      0.063080000000     0.847110000000     0.597415000000     0          
O6       O      0.197480000000     0.905950000000     0.630940000000     0          
O7       O      0.141960000000     0.959000000000     0.983175000000     0          
O8       O      0.164280000000     0.508840000000     0.960420000000     0          
O9       O      0.051760000000     0.986150000000     0.971465000000     0          
O10      O      0.029020000000     0.940850000000     0.998575000000     0          
O11      O      0.136920000000     0.902890000000     0.847415000000     0          
O12      O      0.002520000000     0.844050000000     0.880940000000     0          
O13      O      0.141960000000     0.709000000000     0.766825000000     0          
O14      O      0.164280000000     0.758840000000     0.789580000000     0          
O15      O      0.051760000000     0.736150000000     0.778535000000     0          
O16      O      0.029020000000     0.690850000000     0.751425000000     0          
O17      O      0.136920000000     0.652890000000     0.902585000000     0          
O18      O      0.002520000000     0.594050000000     0.869060000000     0          
O19      O      0.058040000000     0.541000000000     0.516825000000     0          
O20      O      0.035720000000     0.991160000000     0.539580000000     0          
O21      O      0.148240000000     0.513850000000     0.528535000000     0          
O22      O      0.170980000000     0.559150000000     0.501425000000     0          
O23      O      0.063080000000     0.597110000000     0.652585000000     0          
O24      O      0.197480000000     0.655950000000     0.619060000000     0          
Zn1      Zn     0.220600000000     0.280125000000     0.266660000000     0          
Zn2      Zn     0.379400000000     0.469875000000     0.016660000000     0          
Zn3      Zn     0.379400000000     0.219875000000     0.233340000000     0          
Zn4      Zn     0.220600000000     0.030125000000     0.483340000000     0          
H1       H      0.295060000000     0.455300000000     0.053700000000     0          
H2       H      0.278160000000     0.422650000000     0.092100000000     0          
H3       H      0.397400000000     0.372700000000     0.079150000000     0          
H4       H      0.211680000000     0.407750000000     0.042150000000     0          
H5       H      0.225400000000     0.300400000000     0.128450000000     0          
H6       H      0.214560000000     0.267200000000     0.167400000000     0          
H7       H      0.205900000000     0.353700000000     0.216250000000     0          
H8       H      0.213420000000     0.388050000000     0.177900000000     0          
H9       H      0.304940000000     0.294700000000     0.303700000000     0          
H10      H      0.321840000000     0.327350000000     0.342100000000     0          
H11      H      0.202600000000     0.377300000000     0.329150000000     0          
H12      H      0.388320000000     0.342250000000     0.292150000000     0          
H13      H      0.374600000000     0.449600000000     0.378450000000     0          
H14      H      0.385440000000     0.482800000000     0.417400000000     0          
H15      H      0.394100000000     0.396300000000     0.466250000000     0          
H16      H      0.386580000000     0.361950000000     0.427900000000     0          
H17      H      0.304940000000     0.044700000000     0.446300000000     0          
H18      H      0.321840000000     0.077350000000     0.407900000000     0          
H19      H      0.202600000000     0.127300000000     0.420850000000     0          
H20      H      0.388320000000     0.092250000000     0.457850000000     0          
H21      H      0.374600000000     0.199600000000     0.371550000000     0          
H22      H      0.385440000000     0.232800000000     0.332600000000     0          
H23      H      0.394100000000     0.146300000000     0.283750000000     0          
H24      H      0.386580000000     0.111950000000     0.322100000000     0          
H25      H      0.295060000000     0.205300000000     0.196300000000     0          
H26      H      0.278160000000     0.172650000000     0.157900000000     0          
H27      H      0.397400000000     0.122700000000     0.170850000000     0          
H28      H      0.211680000000     0.157750000000     0.207850000000     0          
H29      H      0.225400000000     0.050400000000     0.121550000000     0          
H30      H      0.214560000000     0.017200000000     0.082600000000     0          
H31      H      0.205900000000     0.103700000000     0.033750000000     0          
H32      H      0.213420000000     0.138050000000     0.072100000000     0          
C1       C      0.316260000000     0.438700000000     0.059305000000     0          
C2       C      0.305980000000     0.419500000000     0.082065000000     0          
C3       C      0.337460000000     0.395550000000     0.089880000000     0          
C4       C      0.376600000000     0.390100000000     0.074545000000     0          
C5       C      0.384240000000     0.410650000000     0.052550000000     0          
C6       C      0.290180000000     0.351100000000     0.116045000000     0          
C7       C      0.284780000000     0.330550000000     0.140850000000     0          
C8       C      0.317740000000     0.336700000000     0.161610000000     0          
C9       C      0.356940000000     0.363400000000     0.159085000000     0          
C10      C      0.364120000000     0.383600000000     0.134405000000     0          
C11      C      0.246940000000     0.304750000000     0.142795000000     0          
C12      C      0.240680000000     0.285000000000     0.166050000000     0          
C13      C      0.271460000000     0.290650000000     0.187140000000     0          
C14      C      0.312240000000     0.316100000000     0.185130000000     0          
C15      C      0.347700000000     0.322000000000     0.204990000000     0          
C16      C      0.383700000000     0.349000000000     0.202255000000     0          
C17      C      0.388220000000     0.369550000000     0.179355000000     0          
C18      C      0.255040000000     0.272400000000     0.212415000000     0          
C19      C      0.354880000000     0.296450000000     0.227305000000     0          
C20      C      0.283740000000     0.311300000000     0.309305000000     0          
C21      C      0.294020000000     0.330500000000     0.332065000000     0          
C22      C      0.262540000000     0.354450000000     0.339880000000     0          
C23      C      0.223400000000     0.359900000000     0.324545000000     0          
C24      C      0.215760000000     0.339350000000     0.302550000000     0          
C25      C      0.309820000000     0.398900000000     0.366045000000     0          
C26      C      0.315220000000     0.419450000000     0.390850000000     0          
C27      C      0.282260000000     0.413300000000     0.411610000000     0          
C28      C      0.243060000000     0.386600000000     0.409085000000     0          
C29      C      0.235880000000     0.366400000000     0.384405000000     0          
C30      C      0.353060000000     0.445250000000     0.392795000000     0          
C31      C      0.359320000000     0.465000000000     0.416050000000     0          
C32      C      0.328540000000     0.459350000000     0.437140000000     0          
C33      C      0.287760000000     0.433900000000     0.435130000000     0          
C34      C      0.252300000000     0.428000000000     0.454990000000     0          
C35      C      0.216300000000     0.401000000000     0.452255000000     0          
C36      C      0.211780000000     0.380450000000     0.429355000000     0          
C37      C      0.344960000000     0.477600000000     0.462415000000     0          
C38      C      0.245120000000     0.453550000000     0.477305000000     0          
C39      C      0.283740000000     0.061300000000     0.440695000000     0          
C40      C      0.294020000000     0.080500000000     0.417935000000     0          
C41      C      0.262540000000     0.104450000000     0.410120000000     0          
C42      C      0.223400000000     0.109900000000     0.425455000000     0          
C43      C      0.215760000000     0.089350000000     0.447450000000     0          
C44      C      0.309820000000     0.148900000000     0.383955000000     0          
C45      C      0.315220000000     0.169450000000     0.359150000000     0          
C46      C      0.282260000000     0.163300000000     0.338390000000     0          
C47      C      0.243060000000     0.136600000000     0.340915000000     0          
C48      C      0.235880000000     0.116400000000     0.365595000000     0          
C49      C      0.353060000000     0.195250000000     0.357205000000     0          
C50      C      0.359320000000     0.215000000000     0.333950000000     0          
C51      C      0.328540000000     0.209350000000     0.312860000000     0          
C52      C      0.287760000000     0.183900000000     0.314870000000     0          
C53      C      0.252300000000     0.178000000000     0.295010000000     0          
C54      C      0.216300000000     0.151000000000     0.297745000000     0          
C55      C      0.211780000000     0.130450000000     0.320645000000     0          
C56      C      0.344960000000     0.227600000000     0.287585000000     0          
C57      C      0.245120000000     0.203550000000     0.272695000000     0          
C58      C      0.316260000000     0.188700000000     0.190695000000     0          
C59      C      0.305980000000     0.169500000000     0.167935000000     0          
C60      C      0.337460000000     0.145550000000     0.160120000000     0          
C61      C      0.376600000000     0.140100000000     0.175455000000     0          
C62      C      0.384240000000     0.160650000000     0.197450000000     0          
C63      C      0.290180000000     0.101100000000     0.133955000000     0          
C64      C      0.284780000000     0.080550000000     0.109150000000     0          
C65      C      0.317740000000     0.086700000000     0.088390000000     0          
C66      C      0.356940000000     0.113400000000     0.090915000000     0          
C67      C      0.364120000000     0.133600000000     0.115595000000     0          
C68      C      0.246940000000     0.054750000000     0.107205000000     0          
C69      C      0.240680000000     0.035000000000     0.083950000000     0          
C70      C      0.271460000000     0.040650000000     0.062860000000     0          
C71      C      0.312240000000     0.066100000000     0.064870000000     0          
C72      C      0.347700000000     0.072000000000     0.045010000000     0          
C73      C      0.383700000000     0.099000000000     0.047745000000     0          
C74      C      0.388220000000     0.119550000000     0.070645000000     0          
C75      C      0.255040000000     0.022400000000     0.037585000000     0          
C76      C      0.354880000000     0.046450000000     0.022695000000     0          
N1       N      0.355180000000     0.434725000000     0.044760000000     0          
N2       N      0.330240000000     0.376450000000     0.114515000000     0          
N3       N      0.244820000000     0.315275000000     0.294760000000     0          
N4       N      0.269760000000     0.373550000000     0.364515000000     0          
N5       N      0.244820000000     0.065275000000     0.455240000000     0          
N6       N      0.269760000000     0.123550000000     0.385485000000     0          
N7       N      0.355180000000     0.184725000000     0.205240000000     0          
N8       N      0.330240000000     0.126450000000     0.135485000000     0          
O1       O      0.258040000000     0.291000000000     0.233175000000     0          
O2       O      0.235720000000     0.241160000000     0.210420000000     0          
O3       O      0.348240000000     0.263850000000     0.221465000000     0          
O4       O      0.370980000000     0.309150000000     0.248575000000     0          
O5       O      0.263080000000     0.347110000000     0.097415000000     0          
O6       O      0.397480000000     0.405950000000     0.130940000000     0          
O7       O      0.341960000000     0.459000000000     0.483175000000     0          
O8       O      0.364280000000     0.008840000000     0.460420000000     0          
O9       O      0.251760000000     0.486150000000     0.471465000000     0          
O10      O      0.229020000000     0.440850000000     0.498575000000     0          
O11      O      0.336920000000     0.402890000000     0.347415000000     0          
O12      O      0.202520000000     0.344050000000     0.380940000000     0          
O13      O      0.341960000000     0.209000000000     0.266825000000     0          
O14      O      0.364280000000     0.258840000000     0.289580000000     0          
O15      O      0.251760000000     0.236150000000     0.278535000000     0          
O16      O      0.229020000000     0.190850000000     0.251425000000     0          
O17      O      0.336920000000     0.152890000000     0.402585000000     0          
O18      O      0.202520000000     0.094050000000     0.369060000000     0          
O19      O      0.258040000000     0.041000000000     0.016825000000     0          
O20      O      0.235720000000     0.491160000000     0.039580000000     0          
O21      O      0.348240000000     0.013850000000     0.028535000000     0          
O22      O      0.370980000000     0.059150000000     0.001425000000     0          
O23      O      0.263080000000     0.097110000000     0.152585000000     0          
O24      O      0.397480000000     0.155950000000     0.119060000000     0          
Zn1      Zn     0.220600000000     0.280125000000     0.766660000000     0          
Zn2      Zn     0.379400000000     0.469875000000     0.516660000000     0          
Zn3      Zn     0.379400000000     0.219875000000     0.733340000000     0          
Zn4      Zn     0.220600000000     0.030125000000     0.983340000000     0          
H1       H      0.295060000000     0.455300000000     0.553700000000     0          
H2       H      0.278160000000     0.422650000000     0.592100000000     0          
H3       H      0.397400000000     0.372700000000     0.579150000000     0          
H4       H      0.211680000000     0.407750000000     0.542150000000     0          
H5       H      0.225400000000     0.300400000000     0.628450000000     0          
H6       H      0.214560000000     0.267200000000     0.667400000000     0          
H7       H      0.205900000000     0.353700000000     0.716250000000     0          
H8       H      0.213420000000     0.388050000000     0.677900000000     0          
H9       H      0.304940000000     0.294700000000     0.803700000000     0          
H10      H      0.321840000000     0.327350000000     0.842100000000     0          
H11      H      0.202600000000     0.377300000000     0.829150000000     0          
H12      H      0.388320000000     0.342250000000     0.792150000000     0          
H13      H      0.374600000000     0.449600000000     0.878450000000     0          
H14      H      0.385440000000     0.482800000000     0.917400000000     0          
H15      H      0.394100000000     0.396300000000     0.966250000000     0          
H16      H      0.386580000000     0.361950000000     0.927900000000     0          
H17      H      0.304940000000     0.044700000000     0.946300000000     0          
H18      H      0.321840000000     0.077350000000     0.907900000000     0          
H19      H      0.202600000000     0.127300000000     0.920850000000     0          
H20      H      0.388320000000     0.092250000000     0.957850000000     0          
H21      H      0.374600000000     0.199600000000     0.871550000000     0          
H22      H      0.385440000000     0.232800000000     0.832600000000     0          
H23      H      0.394100000000     0.146300000000     0.783750000000     0          
H24      H      0.386580000000     0.111950000000     0.822100000000     0          
H25      H      0.295060000000     0.205300000000     0.696300000000     0          
H26      H      0.278160000000     0.172650000000     0.657900000000     0          
H27      H      0.397400000000     0.122700000000     0.670850000000     0          
H28      H      0.211680000000     0.157750000000     0.707850000000     0          
H29      H      0.225400000000     0.050400000000     0.621550000000     0          
H30      H      0.214560000000     0.017200000000     0.582600000000     0          
H31      H      0.205900000000     0.103700000000     0.533750000000     0          
H32      H      0.213420000000     0.138050000000     0.572100000000     0          
C1       C      0.316260000000     0.438700000000     0.559305000000     0          
C2       C      0.305980000000     0.419500000000     0.582065000000     0          
C3       C      0.337460000000     0.395550000000     0.589880000000     0          
C4       C      0.376600000000     0.390100000000     0.574545000000     0          
C5       C      0.384240000000     0.410650000000     0.552550000000     0          
C6       C      0.290180000000     0.351100000000     0.616045000000     0          
C7       C      0.284780000000     0.330550000000     0.640850000000     0          
C8       C      0.317740000000     0.336700000000     0.661610000000     0          
C9       C      0.356940000000     0.363400000000     0.659085000000     0          
C10      C      0.364120000000     0.383600000000     0.634405000000     0          
C11      C      0.246940000000     0.304750000000     0.642795000000     0          
C12      C      0.240680000000     0.285000000000     0.666050000000     0          
C13      C      0.271460000000     0.290650000000     0.687140000000     0          
C14      C      0.312240000000     0.316100000000     0.685130000000     0          
C15      C      0.347700000000     0.322000000000     0.704990000000     0          
C16      C      0.383700000000     0.349000000000     0.702255000000     0          
C17      C      0.388220000000     0.369550000000     0.679355000000     0          
C18      C      0.255040000000     0.272400000000     0.712415000000     0          
C19      C      0.354880000000     0.296450000000     0.727305000000     0          
C20      C      0.283740000000     0.311300000000     0.809305000000     0          
C21      C      0.294020000000     0.330500000000     0.832065000000     0          
C22      C      0.262540000000     0.354450000000     0.839880000000     0          
C23      C      0.223400000000     0.359900000000     0.824545000000     0          
C24      C      0.215760000000     0.339350000000     0.802550000000     0          
C25      C      0.309820000000     0.398900000000     0.866045000000     0          
C26      C      0.315220000000     0.419450000000     0.890850000000     0          
C27      C      0.282260000000     0.413300000000     0.911610000000     0          
C28      C      0.243060000000     0.386600000000     0.909085000000     0          
C29      C      0.235880000000     0.366400000000     0.884405000000     0          
C30      C      0.353060000000     0.445250000000     0.892795000000     0          
C31      C      0.359320000000     0.465000000000     0.916050000000     0          
C32      C      0.328540000000     0.459350000000     0.937140000000     0          
C33      C      0.287760000000     0.433900000000     0.935130000000     0          
C34      C      0.252300000000     0.428000000000     0.954990000000     0          
C35      C      0.216300000000     0.401000000000     0.952255000000     0          
C36      C      0.211780000000     0.380450000000     0.929355000000     0          
C37      C      0.344960000000     0.477600000000     0.962415000000     0          
C38      C      0.245120000000     0.453550000000     0.977305000000     0          
C39      C      0.283740000000     0.061300000000     0.940695000000     0          
C40      C      0.294020000000     0.080500000000     0.917935000000     0          
C41      C      0.262540000000     0.104450000000     0.910120000000     0          
C42      C      0.223400000000     0.109900000000     0.925455000000     0          
C43      C      0.215760000000     0.089350000000     0.947450000000     0          
C44      C      0.309820000000     0.148900000000     0.883955000000     0          
C45      C      0.315220000000     0.169450000000     0.859150000000     0          
C46      C      0.282260000000     0.163300000000     0.838390000000     0          
C47      C      0.243060000000     0.136600000000     0.840915000000     0          
C48      C      0.235880000000     0.116400000000     0.865595000000     0          
C49      C      0.353060000000     0.195250000000     0.857205000000     0          
C50      C      0.359320000000     0.215000000000     0.833950000000     0          
C51      C      0.328540000000     0.209350000000     0.812860000000     0          
C52      C      0.287760000000     0.183900000000     0.814870000000     0          
C53      C      0.252300000000     0.178000000000     0.795010000000     0          
C54      C      0.216300000000     0.151000000000     0.797745000000     0          
C55      C      0.211780000000     0.130450000000     0.820645000000     0          
C56      C      0.344960000000     0.227600000000     0.787585000000     0          
C57      C      0.245120000000     0.203550000000     0.772695000000     0          
C58      C      0.316260000000     0.188700000000     0.690695000000     0          
C59      C      0.305980000000     0.169500000000     0.667935000000     0          
C60      C      0.337460000000     0.145550000000     0.660120000000     0          
C61      C      0.376600000000     0.140100000000     0.675455000000     0          
C62      C      0.384240000000     0.160650000000     0.697450000000     0          
C63      C      0.290180000000     0.101100000000     0.633955000000     0          
C64      C      0.284780000000     0.080550000000     0.609150000000     0          
C65      C      0.317740000000     0.086700000000     0.588390000000     0          
C66      C      0.356940000000     0.113400000000     0.590915000000     0          
C67      C      0.364120000000     0.133600000000     0.615595000000     0          
C68      C      0.246940000000     0.054750000000     0.607205000000     0          
C69      C      0.240680000000     0.035000000000     0.583950000000     0          
C70      C      0.271460000000     0.040650000000     0.562860000000     0          
C71      C      0.312240000000     0.066100000000     0.564870000000     0          
C72      C      0.347700000000     0.072000000000     0.545010000000     0          
C73      C      0.383700000000     0.099000000000     0.547745000000     0          
C74      C      0.388220000000     0.119550000000     0.570645000000     0          
C75      C      0.255040000000     0.022400000000     0.537585000000     0          
C76      C      0.354880000000     0.046450000000     0.522695000000     0          
N1       N      0.355180000000     0.434725000000     0.544760000000     0          
N2       N      0.330240000000     0.376450000000     0.614515000000     0          
N3       N      0.244820000000     0.315275000000     0.794760000000     0          
N4       N      0.269760000000     0.373550000000     0.864515000000     0          
N5       N      0.244820000000     0.065275000000     0.955240000000     0          
N6       N      0.269760000000     0.123550000000     0.885485000000     0          
N7       N      0.355180000000     0.184725000000     0.705240000000     0          
N8       N      0.330240000000     0.126450000000     0.635485000000     0          
O1       O      0.258040000000     0.291000000000     0.733175000000     0          
O2       O      0.235720000000     0.241160000000     0.710420000000     0          
O3       O      0.348240000000     0.263850000000     0.721465000000     0          
O4       O      0.370980000000     0.309150000000     0.748575000000     0          
O5       O      0.263080000000     0.347110000000     0.597415000000     0          
O6       O      0.397480000000     0.405950000000     0.630940000000     0          
O7       O      0.341960000000     0.459000000000     0.983175000000     0          
O8       O      0.364280000000     0.008840000000     0.960420000000     0          
O9       O      0.251760000000     0.486150000000     0.971465000000     0          
O10      O      0.229020000000     0.440850000000     0.998575000000     0          
O11      O      0.336920000000     0.402890000000     0.847415000000     0          
O12      O      0.202520000000     0.344050000000     0.880940000000     0          
O13      O      0.341960000000     0.209000000000     0.766825000000     0          
O14      O      0.364280000000     0.258840000000     0.789580000000     0          
O15      O      0.251760000000     0.236150000000     0.778535000000     0          
O16      O      0.229020000000     0.190850000000     0.751425000000     0          
O17      O      0.336920000000     0.152890000000     0.902585000000     0          
O18      O      0.202520000000     0.094050000000     0.869060000000     0          
O19      O      0.258040000000     0.041000000000     0.516825000000     0          
O20      O      0.235720000000     0.491160000000     0.539580000000     0          
O21      O      0.348240000000     0.013850000000     0.528535000000     0          
O22      O      0.370980000000     0.059150000000     0.501425000000     0          
O23      O      0.263080000000     0.097110000000     0.652585000000     0          
O24      O      0.397480000000     0.155950000000     0.619060000000     0          
Zn1      Zn     0.220600000000     0.780125000000     0.266660000000     0          
Zn2      Zn     0.379400000000     0.969875000000     0.016660000000     0          
Zn3      Zn     0.379400000000     0.719875000000     0.233340000000     0          
Zn4      Zn     0.220600000000     0.530125000000     0.483340000000     0          
H1       H      0.295060000000     0.955300000000     0.053700000000     0          
H2       H      0.278160000000     0.922650000000     0.092100000000     0          
H3       H      0.397400000000     0.872700000000     0.079150000000     0          
H4       H      0.211680000000     0.907750000000     0.042150000000     0          
H5       H      0.225400000000     0.800400000000     0.128450000000     0          
H6       H      0.214560000000     0.767200000000     0.167400000000     0          
H7       H      0.205900000000     0.853700000000     0.216250000000     0          
H8       H      0.213420000000     0.888050000000     0.177900000000     0          
H9       H      0.304940000000     0.794700000000     0.303700000000     0          
H10      H      0.321840000000     0.827350000000     0.342100000000     0          
H11      H      0.202600000000     0.877300000000     0.329150000000     0          
H12      H      0.388320000000     0.842250000000     0.292150000000     0          
H13      H      0.374600000000     0.949600000000     0.378450000000     0          
H14      H      0.385440000000     0.982800000000     0.417400000000     0          
H15      H      0.394100000000     0.896300000000     0.466250000000     0          
H16      H      0.386580000000     0.861950000000     0.427900000000     0          
H17      H      0.304940000000     0.544700000000     0.446300000000     0          
H18      H      0.321840000000     0.577350000000     0.407900000000     0          
H19      H      0.202600000000     0.627300000000     0.420850000000     0          
H20      H      0.388320000000     0.592250000000     0.457850000000     0          
H21      H      0.374600000000     0.699600000000     0.371550000000     0          
H22      H      0.385440000000     0.732800000000     0.332600000000     0          
H23      H      0.394100000000     0.646300000000     0.283750000000     0          
H24      H      0.386580000000     0.611950000000     0.322100000000     0          
H25      H      0.295060000000     0.705300000000     0.196300000000     0          
H26      H      0.278160000000     0.672650000000     0.157900000000     0          
H27      H      0.397400000000     0.622700000000     0.170850000000     0          
H28      H      0.211680000000     0.657750000000     0.207850000000     0          
H29      H      0.225400000000     0.550400000000     0.121550000000     0          
H30      H      0.214560000000     0.517200000000     0.082600000000     0          
H31      H      0.205900000000     0.603700000000     0.033750000000     0          
H32      H      0.213420000000     0.638050000000     0.072100000000     0          
C1       C      0.316260000000     0.938700000000     0.059305000000     0          
C2       C      0.305980000000     0.919500000000     0.082065000000     0          
C3       C      0.337460000000     0.895550000000     0.089880000000     0          
C4       C      0.376600000000     0.890100000000     0.074545000000     0          
C5       C      0.384240000000     0.910650000000     0.052550000000     0          
C6       C      0.290180000000     0.851100000000     0.116045000000     0          
C7       C      0.284780000000     0.830550000000     0.140850000000     0          
C8       C      0.317740000000     0.836700000000     0.161610000000     0          
C9       C      0.356940000000     0.863400000000     0.159085000000     0          
C10      C      0.364120000000     0.883600000000     0.134405000000     0          
C11      C      0.246940000000     0.804750000000     0.142795000000     0          
C12      C      0.240680000000     0.785000000000     0.166050000000     0          
C13      C      0.271460000000     0.790650000000     0.187140000000     0          
C14      C      0.312240000000     0.816100000000     0.185130000000     0          
C15      C      0.347700000000     0.822000000000     0.204990000000     0          
C16      C      0.383700000000     0.849000000000     0.202255000000     0          
C17      C      0.388220000000     0.869550000000     0.179355000000     0          
C18      C      0.255040000000     0.772400000000     0.212415000000     0          
C19      C      0.354880000000     0.796450000000     0.227305000000     0          
C20      C      0.283740000000     0.811300000000     0.309305000000     0          
C21      C      0.294020000000     0.830500000000     0.332065000000     0          
C22      C      0.262540000000     0.854450000000     0.339880000000     0          
C23      C      0.223400000000     0.859900000000     0.324545000000     0          
C24      C      0.215760000000     0.839350000000     0.302550000000     0          
C25      C      0.309820000000     0.898900000000     0.366045000000     0          
C26      C      0.315220000000     0.919450000000     0.390850000000     0          
C27      C      0.282260000000     0.913300000000     0.411610000000     0          
C28      C      0.243060000000     0.886600000000     0.409085000000     0          
C29      C      0.235880000000     0.866400000000     0.384405000000     0          
C30      C      0.353060000000     0.945250000000     0.392795000000     0          
C31      C      0.359320000000     0.965000000000     0.416050000000     0          
C32      C      0.328540000000     0.959350000000     0.437140000000     0          
C33      C      0.287760000000     0.933900000000     0.435130000000     0          
C34      C      0.252300000000     0.928000000000     0.454990000000     0          
C35      C      0.216300000000     0.901000000000     0.452255000000     0          
C36      C      0.211780000000     0.880450000000     0.429355000000     0          
C37      C      0.344960000000     0.977600000000     0.462415000000     0          
C38      C      0.245120000000     0.953550000000     0.477305000000     0          
C39      C      0.283740000000     0.561300000000     0.440695000000     0          
C40      C      0.294020000000     0.580500000000     0.417935000000     0          
C41      C      0.262540000000     0.604450000000     0.410120000000     0          
C42      C      0.223400000000     0.609900000000     0.425455000000     0          
C43      C      0.215760000000     0.589350000000     0.447450000000     0          
C44      C      0.309820000000     0.648900000000     0.383955000000     0          
C45      C      0.315220000000     0.669450000000     0.359150000000     0          
C46      C      0.282260000000     0.663300000000     0.338390000000     0          
C47      C      0.243060000000     0.636600000000     0.340915000000     0          
C48      C      0.235880000000     0.616400000000     0.365595000000     0          
C49      C      0.353060000000     0.695250000000     0.357205000000     0          
C50      C      0.359320000000     0.715000000000     0.333950000000     0          
C51      C      0.328540000000     0.709350000000     0.312860000000     0          
C52      C      0.287760000000     0.683900000000     0.314870000000     0          
C53      C      0.252300000000     0.678000000000     0.295010000000     0          
C54      C      0.216300000000     0.651000000000     0.297745000000     0          
C55      C      0.211780000000     0.630450000000     0.320645000000     0          
C56      C      0.344960000000     0.727600000000     0.287585000000     0          
C57      C      0.245120000000     0.703550000000     0.272695000000     0          
C58      C      0.316260000000     0.688700000000     0.190695000000     0          
C59      C      0.305980000000     0.669500000000     0.167935000000     0          
C60      C      0.337460000000     0.645550000000     0.160120000000     0          
C61      C      0.376600000000     0.640100000000     0.175455000000     0          
C62      C      0.384240000000     0.660650000000     0.197450000000     0          
C63      C      0.290180000000     0.601100000000     0.133955000000     0          
C64      C      0.284780000000     0.580550000000     0.109150000000     0          
C65      C      0.317740000000     0.586700000000     0.088390000000     0          
C66      C      0.356940000000     0.613400000000     0.090915000000     0          
C67      C      0.364120000000     0.633600000000     0.115595000000     0          
C68      C      0.246940000000     0.554750000000     0.107205000000     0          
C69      C      0.240680000000     0.535000000000     0.083950000000     0          
C70      C      0.271460000000     0.540650000000     0.062860000000     0          
C71      C      0.312240000000     0.566100000000     0.064870000000     0          
C72      C      0.347700000000     0.572000000000     0.045010000000     0          
C73      C      0.383700000000     0.599000000000     0.047745000000     0          
C74      C      0.388220000000     0.619550000000     0.070645000000     0          
C75      C      0.255040000000     0.522400000000     0.037585000000     0          
C76      C      0.354880000000     0.546450000000     0.022695000000     0          
N1       N      0.355180000000     0.934725000000     0.044760000000     0          
N2       N      0.330240000000     0.876450000000     0.114515000000     0          
N3       N      0.244820000000     0.815275000000     0.294760000000     0          
N4       N      0.269760000000     0.873550000000     0.364515000000     0          
N5       N      0.244820000000     0.565275000000     0.455240000000     0          
N6       N      0.269760000000     0.623550000000     0.385485000000     0          
N7       N      0.355180000000     0.684725000000     0.205240000000     0          
N8       N      0.330240000000     0.626450000000     0.135485000000     0          
O1       O      0.258040000000     0.791000000000     0.233175000000     0          
O2       O      0.235720000000     0.741160000000     0.210420000000     0          
O3       O      0.348240000000     0.763850000000     0.221465000000     0          
O4       O      0.370980000000     0.809150000000     0.248575000000     0          
O5       O      0.263080000000     0.847110000000     0.097415000000     0          
O6       O      0.397480000000     0.905950000000     0.130940000000     0          
O7       O      0.341960000000     0.959000000000     0.483175000000     0          
O8       O      0.364280000000     0.508840000000     0.460420000000     0          
O9       O      0.251760000000     0.986150000000     0.471465000000     0          
O10      O      0.229020000000     0.940850000000     0.498575000000     0          
O11      O      0.336920000000     0.902890000000     0.347415000000     0          
O12      O      0.202520000000     0.844050000000     0.380940000000     0          
O13      O      0.341960000000     0.709000000000     0.266825000000     0          
O14      O      0.364280000000     0.758840000000     0.289580000000     0          
O15      O      0.251760000000     0.736150000000     0.278535000000     0          
O16      O      0.229020000000     0.690850000000     0.251425000000     0          
O17      O      0.336920000000     0.652890000000     0.402585000000     0          
O18      O      0.202520000000     0.594050000000     0.369060000000     0          
O19      O      0.258040000000     0.541000000000     0.016825000000     0          
O20      O      0.235720000000     0.991160000000     0.039580000000     0          
O21      O      0.348240000000     0.513850000000     0.028535000000     0          
O22      O      0.370980000000     0.559150000000     0.001425000000     0          
O23      O      0.263080000000     0.597110000000     0.152585000000     0          
O24      O      0.397480000000     0.655950000000     0.119060000000     0          
Zn1      Zn     0.220600000000     0.780125000000     0.766660000000     0          
Zn2      Zn     0.379400000000     0.969875000000     0.516660000000     0          
Zn3      Zn     0.379400000000     0.719875000000     0.733340000000     0          
Zn4      Zn     0.220600000000     0.530125000000     0.983340000000     0          
H1       H      0.295060000000     0.955300000000     0.553700000000     0          
H2       H      0.278160000000     0.922650000000     0.592100000000     0          
H3       H      0.397400000000     0.872700000000     0.579150000000     0          
H4       H      0.211680000000     0.907750000000     0.542150000000     0          
H5       H      0.225400000000     0.800400000000     0.628450000000     0          
H6       H      0.214560000000     0.767200000000     0.667400000000     0          
H7       H      0.205900000000     0.853700000000     0.716250000000     0          
H8       H      0.213420000000     0.888050000000     0.677900000000     0          
H9       H      0.304940000000     0.794700000000     0.803700000000     0          
H10      H      0.321840000000     0.827350000000     0.842100000000     0          
H11      H      0.202600000000     0.877300000000     0.829150000000     0          
H12      H      0.388320000000     0.842250000000     0.792150000000     0          
H13      H      0.374600000000     0.949600000000     0.878450000000     0          
H14      H      0.385440000000     0.982800000000     0.917400000000     0          
H15      H      0.394100000000     0.896300000000     0.966250000000     0          
H16      H      0.386580000000     0.861950000000     0.927900000000     0          
H17      H      0.304940000000     0.544700000000     0.946300000000     0          
H18      H      0.321840000000     0.577350000000     0.907900000000     0          
H19      H      0.202600000000     0.627300000000     0.920850000000     0          
H20      H      0.388320000000     0.592250000000     0.957850000000     0          
H21      H      0.374600000000     0.699600000000     0.871550000000     0          
H22      H      0.385440000000     0.732800000000     0.832600000000     0          
H23      H      0.394100000000     0.646300000000     0.783750000000     0          
H24      H      0.386580000000     0.611950000000     0.822100000000     0          
H25      H      0.295060000000     0.705300000000     0.696300000000     0          
H26      H      0.278160000000     0.672650000000     0.657900000000     0          
H27      H      0.397400000000     0.622700000000     0.670850000000     0          
H28      H      0.211680000000     0.657750000000     0.707850000000     0          
H29      H      0.225400000000     0.550400000000     0.621550000000     0          
H30      H      0.214560000000     0.517200000000     0.582600000000     0          
H31      H      0.205900000000     0.603700000000     0.533750000000     0          
H32      H      0.213420000000     0.638050000000     0.572100000000     0          
C1       C      0.316260000000     0.938700000000     0.559305000000     0          
C2       C      0.305980000000     0.919500000000     0.582065000000     0          
C3       C      0.337460000000     0.895550000000     0.589880000000     0          
C4       C      0.376600000000     0.890100000000     0.574545000000     0          
C5       C      0.384240000000     0.910650000000     0.552550000000     0          
C6       C      0.290180000000     0.851100000000     0.616045000000     0          
C7       C      0.284780000000     0.830550000000     0.640850000000     0          
C8       C      0.317740000000     0.836700000000     0.661610000000     0          
C9       C      0.356940000000     0.863400000000     0.659085000000     0          
C10      C      0.364120000000     0.883600000000     0.634405000000     0          
C11      C      0.246940000000     0.804750000000     0.642795000000     0          
C12      C      0.240680000000     0.785000000000     0.666050000000     0          
C13      C      0.271460000000     0.790650000000     0.687140000000     0          
C14      C      0.312240000000     0.816100000000     0.685130000000     0          
C15      C      0.347700000000     0.822000000000     0.704990000000     0          
C16      C      0.383700000000     0.849000000000     0.702255000000     0          
C17      C      0.388220000000     0.869550000000     0.679355000000     0          
C18      C      0.255040000000     0.772400000000     0.712415000000     0          
C19      C      0.354880000000     0.796450000000     0.727305000000     0          
C20      C      0.283740000000     0.811300000000     0.809305000000     0          
C21      C      0.294020000000     0.830500000000     0.832065000000     0          
C22      C      0.262540000000     0.854450000000     0.839880000000     0          
C23      C      0.223400000000     0.859900000000     0.824545000000     0          
C24      C      0.215760000000     0.839350000000     0.802550000000     0          
C25      C      0.309820000000     0.898900000000     0.866045000000     0          
C26      C      0.315220000000     0.919450000000     0.890850000000     0          
C27      C      0.282260000000     0.913300000000     0.911610000000     0          
C28      C      0.243060000000     0.886600000000     0.909085000000     0          
C29      C      0.235880000000     0.866400000000     0.884405000000     0          
C30      C      0.353060000000     0.945250000000     0.892795000000     0          
C31      C      0.359320000000     0.965000000000     0.916050000000     0          
C32      C      0.328540000000     0.959350000000     0.937140000000     0          
C33      C      0.287760000000     0.933900000000     0.935130000000     0          
C34      C      0.252300000000     0.928000000000     0.954990000000     0          
C35      C      0.216300000000     0.901000000000     0.952255000000     0          
C36      C      0.211780000000     0.880450000000     0.929355000000     0          
C37      C      0.344960000000     0.977600000000     0.962415000000     0          
C38      C      0.245120000000     0.953550000000     0.977305000000     0          
C39      C      0.283740000000     0.561300000000     0.940695000000     0          
C40      C      0.294020000000     0.580500000000     0.917935000000     0          
C41      C      0.262540000000     0.604450000000     0.910120000000     0          
C42      C      0.223400000000     0.609900000000     0.925455000000     0          
C43      C      0.215760000000     0.589350000000     0.947450000000     0          
C44      C      0.309820000000     0.648900000000     0.883955000000     0          
C45      C      0.315220000000     0.669450000000     0.859150000000     0          
C46      C      0.282260000000     0.663300000000     0.838390000000     0          
C47      C      0.243060000000     0.636600000000     0.840915000000     0          
C48      C      0.235880000000     0.616400000000     0.865595000000     0          
C49      C      0.353060000000     0.695250000000     0.857205000000     0          
C50      C      0.359320000000     0.715000000000     0.833950000000     0          
C51      C      0.328540000000     0.709350000000     0.812860000000     0          
C52      C      0.287760000000     0.683900000000     0.814870000000     0          
C53      C      0.252300000000     0.678000000000     0.795010000000     0          
C54      C      0.216300000000     0.651000000000     0.797745000000     0          
C55      C      0.211780000000     0.630450000000     0.820645000000     0          
C56      C      0.344960000000     0.727600000000     0.787585000000     0          
C57      C      0.245120000000     0.703550000000     0.772695000000     0          
C58      C      0.316260000000     0.688700000000     0.690695000000     0          
C59      C      0.305980000000     0.669500000000     0.667935000000     0          
C60      C      0.337460000000     0.645550000000     0.660120000000     0          
C61      C      0.376600000000     0.640100000000     0.675455000000     0          
C62      C      0.384240000000     0.660650000000     0.697450000000     0          
C63      C      0.290180000000     0.601100000000     0.633955000000     0          
C64      C      0.284780000000     0.580550000000     0.609150000000     0          
C65      C      0.317740000000     0.586700000000     0.588390000000     0          
C66      C      0.356940000000     0.613400000000     0.590915000000     0          
C67      C      0.364120000000     0.633600000000     0.615595000000     0          
C68      C      0.246940000000     0.554750000000     0.607205000000     0          
C69      C      0.240680000000     0.535000000000     0.583950000000     0          
C70      C      0.271460000000     0.540650000000     0.562860000000     0          
C71      C      0.312240000000     0.566100000000     0.564870000000     0          
C72      C      0.347700000000     0.572000000000     0.545010000000     0          
C73      C      0.383700000000     0.599000000000     0.547745000000     0          
C74      C      0.388220000000     0.619550000000     0.570645000000     0          
C75      C      0.255040000000     0.522400000000     0.537585000000     0          
C76      C      0.354880000000     0.546450000000     0.522695000000     0          
N1       N      0.355180000000     0.934725000000     0.544760000000     0          
N2       N      0.330240000000     0.876450000000     0.614515000000     0          
N3       N      0.244820000000     0.815275000000     0.794760000000     0          
N4       N      0.269760000000     0.873550000000     0.864515000000     0          
N5       N      0.244820000000     0.565275000000     0.955240000000     0          
N6       N      0.269760000000     0.623550000000     0.885485000000     0          
N7       N      0.355180000000     0.684725000000     0.705240000000     0          
N8       N      0.330240000000     0.626450000000     0.635485000000     0          
O1       O      0.258040000000     0.791000000000     0.733175000000     0          
O2       O      0.235720000000     0.741160000000     0.710420000000     0          
O3       O      0.348240000000     0.763850000000     0.721465000000     0          
O4       O      0.370980000000     0.809150000000     0.748575000000     0          
O5       O      0.263080000000     0.847110000000     0.597415000000     0          
O6       O      0.397480000000     0.905950000000     0.630940000000     0          
O7       O      0.341960000000     0.959000000000     0.983175000000     0          
O8       O      0.364280000000     0.508840000000     0.960420000000     0          
O9       O      0.251760000000     0.986150000000     0.971465000000     0          
O10      O      0.229020000000     0.940850000000     0.998575000000     0          
O11      O      0.336920000000     0.902890000000     0.847415000000     0          
O12      O      0.202520000000     0.844050000000     0.880940000000     0          
O13      O      0.341960000000     0.709000000000     0.766825000000     0          
O14      O      0.364280000000     0.758840000000     0.789580000000     0          
O15      O      0.251760000000     0.736150000000     0.778535000000     0          
O16      O      0.229020000000     0.690850000000     0.751425000000     0          
O17      O      0.336920000000     0.652890000000     0.902585000000     0          
O18      O      0.202520000000     0.594050000000     0.869060000000     0          
O19      O      0.258040000000     0.541000000000     0.516825000000     0          
O20      O      0.235720000000     0.991160000000     0.539580000000     0          
O21      O      0.348240000000     0.513850000000     0.528535000000     0          
O22      O      0.370980000000     0.559150000000     0.501425000000     0          
O23      O      0.263080000000     0.597110000000     0.652585000000     0          
O24      O      0.397480000000     0.655950000000     0.619060000000     0          
Zn1      Zn     0.420600000000     0.280125000000     0.266660000000     0          
Zn2      Zn     0.579400000000     0.469875000000     0.016660000000     0          
Zn3      Zn     0.579400000000     0.219875000000     0.233340000000     0          
Zn4      Zn     0.420600000000     0.030125000000     0.483340000000     0          
H1       H      0.495060000000     0.455300000000     0.053700000000     0          
H2       H      0.478160000000     0.422650000000     0.092100000000     0          
H3       H      0.597400000000     0.372700000000     0.079150000000     0          
H4       H      0.411680000000     0.407750000000     0.042150000000     0          
H5       H      0.425400000000     0.300400000000     0.128450000000     0          
H6       H      0.414560000000     0.267200000000     0.167400000000     0          
H7       H      0.405900000000     0.353700000000     0.216250000000     0          
H8       H      0.413420000000     0.388050000000     0.177900000000     0          
H9       H      0.504940000000     0.294700000000     0.303700000000     0          
H10      H      0.521840000000     0.327350000000     0.342100000000     0          
H11      H      0.402600000000     0.377300000000     0.329150000000     0          
H12      H      0.588320000000     0.342250000000     0.292150000000     0          
H13      H      0.574600000000     0.449600000000     0.378450000000     0          
H14      H      0.585440000000     0.482800000000     0.417400000000     0          
H15      H      0.594100000000     0.396300000000     0.466250000000     0          
H16      H      0.586580000000     0.361950000000     0.427900000000     0          
H17      H      0.504940000000     0.044700000000     0.446300000000     0          
H18      H      0.521840000000     0.077350000000     0.407900000000     0          
H19      H      0.402600000000     0.127300000000     0.420850000000     0          
H20      H      0.588320000000     0.092250000000     0.457850000000     0          
H21      H      0.574600000000     0.199600000000     0.371550000000     0          
H22      H      0.585440000000     0.232800000000     0.332600000000     0          
H23      H      0.594100000000     0.146300000000     0.283750000000     0          
H24      H      0.586580000000     0.111950000000     0.322100000000     0          
H25      H      0.495060000000     0.205300000000     0.196300000000     0          
H26      H      0.478160000000     0.172650000000     0.157900000000     0          
H27      H      0.597400000000     0.122700000000     0.170850000000     0          
H28      H      0.411680000000     0.157750000000     0.207850000000     0          
H29      H      0.425400000000     0.050400000000     0.121550000000     0          
H30      H      0.414560000000     0.017200000000     0.082600000000     0          
H31      H      0.405900000000     0.103700000000     0.033750000000     0          
H32      H      0.413420000000     0.138050000000     0.072100000000     0          
C1       C      0.516260000000     0.438700000000     0.059305000000     0          
C2       C      0.505980000000     0.419500000000     0.082065000000     0          
C3       C      0.537460000000     0.395550000000     0.089880000000     0          
C4       C      0.576600000000     0.390100000000     0.074545000000     0          
C5       C      0.584240000000     0.410650000000     0.052550000000     0          
C6       C      0.490180000000     0.351100000000     0.116045000000     0          
C7       C      0.484780000000     0.330550000000     0.140850000000     0          
C8       C      0.517740000000     0.336700000000     0.161610000000     0          
C9       C      0.556940000000     0.363400000000     0.159085000000     0          
C10      C      0.564120000000     0.383600000000     0.134405000000     0          
C11      C      0.446940000000     0.304750000000     0.142795000000     0          
C12      C      0.440680000000     0.285000000000     0.166050000000     0          
C13      C      0.471460000000     0.290650000000     0.187140000000     0          
C14      C      0.512240000000     0.316100000000     0.185130000000     0          
C15      C      0.547700000000     0.322000000000     0.204990000000     0          
C16      C      0.583700000000     0.349000000000     0.202255000000     0          
C17      C      0.588220000000     0.369550000000     0.179355000000     0          
C18      C      0.455040000000     0.272400000000     0.212415000000     0          
C19      C      0.554880000000     0.296450000000     0.227305000000     0          
C20      C      0.483740000000     0.311300000000     0.309305000000     0          
C21      C      0.494020000000     0.330500000000     0.332065000000     0          
C22      C      0.462540000000     0.354450000000     0.339880000000     0          
C23      C      0.423400000000     0.359900000000     0.324545000000     0          
C24      C      0.415760000000     0.339350000000     0.302550000000     0          
C25      C      0.509820000000     0.398900000000     0.366045000000     0          
C26      C      0.515220000000     0.419450000000     0.390850000000     0          
C27      C      0.482260000000     0.413300000000     0.411610000000     0          
C28      C      0.443060000000     0.386600000000     0.409085000000     0          
C29      C      0.435880000000     0.366400000000     0.384405000000     0          
C30      C      0.553060000000     0.445250000000     0.392795000000     0          
C31      C      0.559320000000     0.465000000000     0.416050000000     0          
C32      C      0.528540000000     0.459350000000     0.437140000000     0          
C33      C      0.487760000000     0.433900000000     0.435130000000     0          
C34      C      0.452300000000     0.428000000000     0.454990000000     0          
C35      C      0.416300000000     0.401000000000     0.452255000000     0          
C36      C      0.411780000000     0.380450000000     0.429355000000     0          
C37      C      0.544960000000     0.477600000000     0.462415000000     0          
C38      C      0.445120000000     0.453550000000     0.477305000000     0          
C39      C      0.483740000000     0.061300000000     0.440695000000     0          
C40      C      0.494020000000     0.080500000000     0.417935000000     0          
C41      C      0.462540000000     0.104450000000     0.410120000000     0          
C42      C      0.423400000000     0.109900000000     0.425455000000     0          
C43      C      0.415760000000     0.089350000000     0.447450000000     0          
C44      C      0.509820000000     0.148900000000     0.383955000000     0          
C45      C      0.515220000000     0.169450000000     0.359150000000     0          
C46      C      0.482260000000     0.163300000000     0.338390000000     0          
C47      C      0.443060000000     0.136600000000     0.340915000000     0          
C48      C      0.435880000000     0.116400000000     0.365595000000     0          
C49      C      0.553060000000     0.195250000000     0.357205000000     0          
C50      C      0.559320000000     0.215000000000     0.333950000000     0          
C51      C      0.528540000000     0.209350000000     0.312860000000     0          
C52      C      0.487760000000     0.183900000000     0.314870000000     0          
C53      C      0.452300000000     0.178000000000     0.295010000000     0          
C54      C      0.416300000000     0.151000000000     0.297745000000     0          
C55      C      0.411780000000     0.130450000000     0.320645000000     0          
C56      C      0.544960000000     0.227600000000     0.287585000000     0          
C57      C      0.445120000000     0.203550000000     0.272695000000     0          
C58      C      0.516260000000     0.188700000000     0.190695000000     0          
C59      C      0.505980000000     0.169500000000     0.167935000000     0          
C60      C      0.537460000000     0.145550000000     0.160120000000     0          
C61      C      0.576600000000     0.140100000000     0.175455000000     0          
C62      C      0.584240000000     0.160650000000     0.197450000000     0          
C63      C      0.490180000000     0.101100000000     0.133955000000     0          
C64      C      0.484780000000     0.080550000000     0.109150000000     0          
C65      C      0.517740000000     0.086700000000     0.088390000000     0          
C66      C      0.556940000000     0.113400000000     0.090915000000     0          
C67      C      0.564120000000     0.133600000000     0.115595000000     0          
C68      C      0.446940000000     0.054750000000     0.107205000000     0          
C69      C      0.440680000000     0.035000000000     0.083950000000     0          
C70      C      0.471460000000     0.040650000000     0.062860000000     0          
C71      C      0.512240000000     0.066100000000     0.064870000000     0          
C72      C      0.547700000000     0.072000000000     0.045010000000     0          
C73      C      0.583700000000     0.099000000000     0.047745000000     0          
C74      C      0.588220000000     0.119550000000     0.070645000000     0          
C75      C      0.455040000000     0.022400000000     0.037585000000     0          
C76      C      0.554880000000     0.046450000000     0.022695000000     0          
N1       N      0.555180000000     0.434725000000     0.044760000000     0          
N2       N      0.530240000000     0.376450000000     0.114515000000     0          
N3       N      0.444820000000     0.315275000000     0.294760000000     0          
N4       N      0.469760000000     0.373550000000     0.364515000000     0          
N5       N      0.444820000000     0.065275000000     0.455240000000     0          
N6       N      0.469760000000     0.123550000000     0.385485000000     0          
N7       N      0.555180000000     0.184725000000     0.205240000000     0          
N8       N      0.530240000000     0.126450000000     0.135485000000     0          
O1       O      0.458040000000     0.291000000000     0.233175000000     0          
O2       O      0.435720000000     0.241160000000     0.210420000000     0          
O3       O      0.548240000000     0.263850000000     0.221465000000     0          
O4       O      0.570980000000     0.309150000000     0.248575000000     0          
O5       O      0.463080000000     0.347110000000     0.097415000000     0          
O6       O      0.597480000000     0.405950000000     0.130940000000     0          
O7       O      0.541960000000     0.459000000000     0.483175000000     0          
O8       O      0.564280000000     0.008840000000     0.460420000000     0          
O9       O      0.451760000000     0.486150000000     0.471465000000     0          
O10      O      0.429020000000     0.440850000000     0.498575000000     0          
O11      O      0.536920000000     0.402890000000     0.347415000000     0          
O12      O      0.402520000000     0.344050000000     0.380940000000     0          
O13      O      0.541960000000     0.209000000000     0.266825000000     0          
O14      O      0.564280000000     0.258840000000     0.289580000000     0          
O15      O      0.451760000000     0.236150000000     0.278535000000     0          
O16      O      0.429020000000     0.190850000000     0.251425000000     0          
O17      O      0.536920000000     0.152890000000     0.402585000000     0          
O18      O      0.402520000000     0.094050000000     0.369060000000     0          
O19      O      0.458040000000     0.041000000000     0.016825000000     0          
O20      O      0.435720000000     0.491160000000     0.039580000000     0          
O21      O      0.548240000000     0.013850000000     0.028535000000     0          
O22      O      0.570980000000     0.059150000000     0.001425000000     0          
O23      O      0.463080000000     0.097110000000     0.152585000000     0          
O24      O      0.597480000000     0.155950000000     0.119060000000     0          
Zn1      Zn     0.420600000000     0.280125000000     0.766660000000     0          
Zn2      Zn     0.579400000000     0.469875000000     0.516660000000     0          
Zn3      Zn     0.579400000000     0.219875000000     0.733340000000     0          
Zn4      Zn     0.420600000000     0.030125000000     0.983340000000     0          
H1       H      0.495060000000     0.455300000000     0.553700000000     0          
H2       H      0.478160000000     0.422650000000     0.592100000000     0          
H3       H      0.597400000000     0.372700000000     0.579150000000     0          
H4       H      0.411680000000     0.407750000000     0.542150000000     0          
H5       H      0.425400000000     0.300400000000     0.628450000000     0          
H6       H      0.414560000000     0.267200000000     0.667400000000     0          
H7       H      0.405900000000     0.353700000000     0.716250000000     0          
H8       H      0.413420000000     0.388050000000     0.677900000000     0          
H9       H      0.504940000000     0.294700000000     0.803700000000     0          
H10      H      0.521840000000     0.327350000000     0.842100000000     0          
H11      H      0.402600000000     0.377300000000     0.829150000000     0          
H12      H      0.588320000000     0.342250000000     0.792150000000     0          
H13      H      0.574600000000     0.449600000000     0.878450000000     0          
H14      H      0.585440000000     0.482800000000     0.917400000000     0          
H15      H      0.594100000000     0.396300000000     0.966250000000     0          
H16      H      0.586580000000     0.361950000000     0.927900000000     0          
H17      H      0.504940000000     0.044700000000     0.946300000000     0          
H18      H      0.521840000000     0.077350000000     0.907900000000     0          
H19      H      0.402600000000     0.127300000000     0.920850000000     0          
H20      H      0.588320000000     0.092250000000     0.957850000000     0          
H21      H      0.574600000000     0.199600000000     0.871550000000     0          
H22      H      0.585440000000     0.232800000000     0.832600000000     0          
H23      H      0.594100000000     0.146300000000     0.783750000000     0          
H24      H      0.586580000000     0.111950000000     0.822100000000     0          
H25      H      0.495060000000     0.205300000000     0.696300000000     0          
H26      H      0.478160000000     0.172650000000     0.657900000000     0          
H27      H      0.597400000000     0.122700000000     0.670850000000     0          
H28      H      0.411680000000     0.157750000000     0.707850000000     0          
H29      H      0.425400000000     0.050400000000     0.621550000000     0          
H30      H      0.414560000000     0.017200000000     0.582600000000     0          
H31      H      0.405900000000     0.103700000000     0.533750000000     0          
H32      H      0.413420000000     0.138050000000     0.572100000000     0          
C1       C      0.516260000000     0.438700000000     0.559305000000     0          
C2       C      0.505980000000     0.419500000000     0.582065000000     0          
C3       C      0.537460000000     0.395550000000     0.589880000000     0          
C4       C      0.576600000000     0.390100000000     0.574545000000     0          
C5       C      0.584240000000     0.410650000000     0.552550000000     0          
C6       C      0.490180000000     0.351100000000     0.616045000000     0          
C7       C      0.484780000000     0.330550000000     0.640850000000     0          
C8       C      0.517740000000     0.336700000000     0.661610000000     0          
C9       C      0.556940000000     0.363400000000     0.659085000000     0          
C10      C      0.564120000000     0.383600000000     0.634405000000     0          
C11      C      0.446940000000     0.304750000000     0.642795000000     0          
C12      C      0.440680000000     0.285000000000     0.666050000000     0          
C13      C      0.471460000000     0.290650000000     0.687140000000     0          
C14      C      0.512240000000     0.316100000000     0.685130000000     0          
C15      C      0.547700000000     0.322000000000     0.704990000000     0          
C16      C      0.583700000000     0.349000000000     0.702255000000     0          
C17      C      0.588220000000     0.369550000000     0.679355000000     0          
C18      C      0.455040000000     0.272400000000     0.712415000000     0          
C19      C      0.554880000000     0.296450000000     0.727305000000     0          
C20      C      0.483740000000     0.311300000000     0.809305000000     0          
C21      C      0.494020000000     0.330500000000     0.832065000000     0          
C22      C      0.462540000000     0.354450000000     0.839880000000     0          
C23      C      0.423400000000     0.359900000000     0.824545000000     0          
C24      C      0.415760000000     0.339350000000     0.802550000000     0          
C25      C      0.509820000000     0.398900000000     0.866045000000     0          
C26      C      0.515220000000     0.419450000000     0.890850000000     0          
C27      C      0.482260000000     0.413300000000     0.911610000000     0          
C28      C      0.443060000000     0.386600000000     0.909085000000     0          
C29      C      0.435880000000     0.366400000000     0.884405000000     0          
C30      C      0.553060000000     0.445250000000     0.892795000000     0          
C31      C      0.559320000000     0.465000000000     0.916050000000     0          
C32      C      0.528540000000     0.459350000000     0.937140000000     0          
C33      C      0.487760000000     0.433900000000     0.935130000000     0          
C34      C      0.452300000000     0.428000000000     0.954990000000     0          
C35      C      0.416300000000     0.401000000000     0.952255000000     0          
C36      C      0.411780000000     0.380450000000     0.929355000000     0          
C37      C      0.544960000000     0.477600000000     0.962415000000     0          
C38      C      0.445120000000     0.453550000000     0.977305000000     0          
C39      C      0.483740000000     0.061300000000     0.940695000000     0          
C40      C      0.494020000000     0.080500000000     0.917935000000     0          
C41      C      0.462540000000     0.104450000000     0.910120000000     0          
C42      C      0.423400000000     0.109900000000     0.925455000000     0          
C43      C      0.415760000000     0.089350000000     0.947450000000     0          
C44      C      0.509820000000     0.148900000000     0.883955000000     0          
C45      C      0.515220000000     0.169450000000     0.859150000000     0          
C46      C      0.482260000000     0.163300000000     0.838390000000     0          
C47      C      0.443060000000     0.136600000000     0.840915000000     0          
C48      C      0.435880000000     0.116400000000     0.865595000000     0          
C49      C      0.553060000000     0.195250000000     0.857205000000     0          
C50      C      0.559320000000     0.215000000000     0.833950000000     0          
C51      C      0.528540000000     0.209350000000     0.812860000000     0          
C52      C      0.487760000000     0.183900000000     0.814870000000     0          
C53      C      0.452300000000     0.178000000000     0.795010000000     0          
C54      C      0.416300000000     0.151000000000     0.797745000000     0          
C55      C      0.411780000000     0.130450000000     0.820645000000     0          
C56      C      0.544960000000     0.227600000000     0.787585000000     0          
C57      C      0.445120000000     0.203550000000     0.772695000000     0          
C58      C      0.516260000000     0.188700000000     0.690695000000     0          
C59      C      0.505980000000     0.169500000000     0.667935000000     0          
C60      C      0.537460000000     0.145550000000     0.660120000000     0          
C61      C      0.576600000000     0.140100000000     0.675455000000     0          
C62      C      0.584240000000     0.160650000000     0.697450000000     0          
C63      C      0.490180000000     0.101100000000     0.633955000000     0          
C64      C      0.484780000000     0.080550000000     0.609150000000     0          
C65      C      0.517740000000     0.086700000000     0.588390000000     0          
C66      C      0.556940000000     0.113400000000     0.590915000000     0          
C67      C      0.564120000000     0.133600000000     0.615595000000     0          
C68      C      0.446940000000     0.054750000000     0.607205000000     0          
C69      C      0.440680000000     0.035000000000     0.583950000000     0          
C70      C      0.471460000000     0.040650000000     0.562860000000     0          
C71      C      0.512240000000     0.066100000000     0.564870000000     0          
C72      C      0.547700000000     0.072000000000     0.545010000000     0          
C73      C      0.583700000000     0.099000000000     0.547745000000     0          
C74      C      0.588220000000     0.119550000000     0.570645000000     0          
C75      C      0.455040000000     0.022400000000     0.537585000000     0          
C76      C      0.554880000000     0.046450000000     0.522695000000     0          
N1       N      0.555180000000     0.434725000000     0.544760000000     0          
N2       N      0.530240000000     0.376450000000     0.614515000000     0          
N3       N      0.444820000000     0.315275000000     0.794760000000     0          
N4       N      0.469760000000     0.373550000000     0.864515000000     0          
N5       N      0.444820000000     0.065275000000     0.955240000000     0          
N6       N      0.469760000000     0.123550000000     0.885485000000     0          
N7       N      0.555180000000     0.184725000000     0.705240000000     0          
N8       N      0.530240000000     0.126450000000     0.635485000000     0          
O1       O      0.458040000000     0.291000000000     0.733175000000     0          
O2       O      0.435720000000     0.241160000000     0.710420000000     0          
O3       O      0.548240000000     0.263850000000     0.721465000000     0          
O4       O      0.570980000000     0.309150000000     0.748575000000     0          
O5       O      0.463080000000     0.347110000000     0.597415000000     0          
O6       O      0.597480000000     0.405950000000     0.630940000000     0          
O7       O      0.541960000000     0.459000000000     0.983175000000     0          
O8       O      0.564280000000     0.008840000000     0.960420000000     0          
O9       O      0.451760000000     0.486150000000     0.971465000000     0          
O10      O      0.429020000000     0.440850000000     0.998575000000     0          
O11      O      0.536920000000     0.402890000000     0.847415000000     0          
O12      O      0.402520000000     0.344050000000     0.880940000000     0          
O13      O      0.541960000000     0.209000000000     0.766825000000     0          
O14      O      0.564280000000     0.258840000000     0.789580000000     0          
O15      O      0.451760000000     0.236150000000     0.778535000000     0          
O16      O      0.429020000000     0.190850000000     0.751425000000     0          
O17      O      0.536920000000     0.152890000000     0.902585000000     0          
O18      O      0.402520000000     0.094050000000     0.869060000000     0          
O19      O      0.458040000000     0.041000000000     0.516825000000     0          
O20      O      0.435720000000     0.491160000000     0.539580000000     0          
O21      O      0.548240000000     0.013850000000     0.528535000000     0          
O22      O      0.570980000000     0.059150000000     0.501425000000     0          
O23      O      0.463080000000     0.097110000000     0.652585000000     0          
O24      O      0.597480000000     0.155950000000     0.619060000000     0          
Zn1      Zn     0.420600000000     0.780125000000     0.266660000000     0          
Zn2      Zn     0.579400000000     0.969875000000     0.016660000000     0          
Zn3      Zn     0.579400000000     0.719875000000     0.233340000000     0          
Zn4      Zn     0.420600000000     0.530125000000     0.483340000000     0          
H1       H      0.495060000000     0.955300000000     0.053700000000     0          
H2       H      0.478160000000     0.922650000000     0.092100000000     0          
H3       H      0.597400000000     0.872700000000     0.079150000000     0          
H4       H      0.411680000000     0.907750000000     0.042150000000     0          
H5       H      0.425400000000     0.800400000000     0.128450000000     0          
H6       H      0.414560000000     0.767200000000     0.167400000000     0          
H7       H      0.405900000000     0.853700000000     0.216250000000     0          
H8       H      0.413420000000     0.888050000000     0.177900000000     0          
H9       H      0.504940000000     0.794700000000     0.303700000000     0          
H10      H      0.521840000000     0.827350000000     0.342100000000     0          
H11      H      0.402600000000     0.877300000000     0.329150000000     0          
H12      H      0.588320000000     0.842250000000     0.292150000000     0          
H13      H      0.574600000000     0.949600000000     0.378450000000     0          
H14      H      0.585440000000     0.982800000000     0.417400000000     0          
H15      H      0.594100000000     0.896300000000     0.466250000000     0          
H16      H      0.586580000000     0.861950000000     0.427900000000     0          
H17      H      0.504940000000     0.544700000000     0.446300000000     0          
H18      H      0.521840000000     0.577350000000     0.407900000000     0          
H19      H      0.402600000000     0.627300000000     0.420850000000     0          
H20      H      0.588320000000     0.592250000000     0.457850000000     0          
H21      H      0.574600000000     0.699600000000     0.371550000000     0          
H22      H      0.585440000000     0.732800000000     0.332600000000     0          
H23      H      0.594100000000     0.646300000000     0.283750000000     0          
H24      H      0.586580000000     0.611950000000     0.322100000000     0          
H25      H      0.495060000000     0.705300000000     0.196300000000     0          
H26      H      0.478160000000     0.672650000000     0.157900000000     0          
H27      H      0.597400000000     0.622700000000     0.170850000000     0          
H28      H      0.411680000000     0.657750000000     0.207850000000     0          
H29      H      0.425400000000     0.550400000000     0.121550000000     0          
H30      H      0.414560000000     0.517200000000     0.082600000000     0          
H31      H      0.405900000000     0.603700000000     0.033750000000     0          
H32      H      0.413420000000     0.638050000000     0.072100000000     0          
C1       C      0.516260000000     0.938700000000     0.059305000000     0          
C2       C      0.505980000000     0.919500000000     0.082065000000     0          
C3       C      0.537460000000     0.895550000000     0.089880000000     0          
C4       C      0.576600000000     0.890100000000     0.074545000000     0          
C5       C      0.584240000000     0.910650000000     0.052550000000     0          
C6       C      0.490180000000     0.851100000000     0.116045000000     0          
C7       C      0.484780000000     0.830550000000     0.140850000000     0          
C8       C      0.517740000000     0.836700000000     0.161610000000     0          
C9       C      0.556940000000     0.863400000000     0.159085000000     0          
C10      C      0.564120000000     0.883600000000     0.134405000000     0          
C11      C      0.446940000000     0.804750000000     0.142795000000     0          
C12      C      0.440680000000     0.785000000000     0.166050000000     0          
C13      C      0.471460000000     0.790650000000     0.187140000000     0          
C14      C      0.512240000000     0.816100000000     0.185130000000     0          
C15      C      0.547700000000     0.822000000000     0.204990000000     0          
C16      C      0.583700000000     0.849000000000     0.202255000000     0          
C17      C      0.588220000000     0.869550000000     0.179355000000     0          
C18      C      0.455040000000     0.772400000000     0.212415000000     0          
C19      C      0.554880000000     0.796450000000     0.227305000000     0          
C20      C      0.483740000000     0.811300000000     0.309305000000     0          
C21      C      0.494020000000     0.830500000000     0.332065000000     0          
C22      C      0.462540000000     0.854450000000     0.339880000000     0          
C23      C      0.423400000000     0.859900000000     0.324545000000     0          
C24      C      0.415760000000     0.839350000000     0.302550000000     0          
C25      C      0.509820000000     0.898900000000     0.366045000000     0          
C26      C      0.515220000000     0.919450000000     0.390850000000     0          
C27      C      0.482260000000     0.913300000000     0.411610000000     0          
C28      C      0.443060000000     0.886600000000     0.409085000000     0          
C29      C      0.435880000000     0.866400000000     0.384405000000     0          
C30      C      0.553060000000     0.945250000000     0.392795000000     0          
C31      C      0.559320000000     0.965000000000     0.416050000000     0          
C32      C      0.528540000000     0.959350000000     0.437140000000     0          
C33      C      0.487760000000     0.933900000000     0.435130000000     0          
C34      C      0.452300000000     0.928000000000     0.454990000000     0          
C35      C      0.416300000000     0.901000000000     0.452255000000     0          
C36      C      0.411780000000     0.880450000000     0.429355000000     0          
C37      C      0.544960000000     0.977600000000     0.462415000000     0          
C38      C      0.445120000000     0.953550000000     0.477305000000     0          
C39      C      0.483740000000     0.561300000000     0.440695000000     0          
C40      C      0.494020000000     0.580500000000     0.417935000000     0          
C41      C      0.462540000000     0.604450000000     0.410120000000     0          
C42      C      0.423400000000     0.609900000000     0.425455000000     0          
C43      C      0.415760000000     0.589350000000     0.447450000000     0          
C44      C      0.509820000000     0.648900000000     0.383955000000     0          
C45      C      0.515220000000     0.669450000000     0.359150000000     0          
C46      C      0.482260000000     0.663300000000     0.338390000000     0          
C47      C      0.443060000000     0.636600000000     0.340915000000     0          
C48      C      0.435880000000     0.616400000000     0.365595000000     0          
C49      C      0.553060000000     0.695250000000     0.357205000000     0          
C50      C      0.559320000000     0.715000000000     0.333950000000     0          
C51      C      0.528540000000     0.709350000000     0.312860000000     0          
C52      C      0.487760000000     0.683900000000     0.314870000000     0          
C53      C      0.452300000000     0.678000000000     0.295010000000     0          
C54      C      0.416300000000     0.651000000000     0.297745000000     0          
C55      C      0.411780000000     0.630450000000     0.320645000000     0          
C56      C      0.544960000000     0.727600000000     0.287585000000     0          
C57      C      0.445120000000     0.703550000000     0.272695000000     0          
C58      C      0.516260000000     0.688700000000     0.190695000000     0          
C59      C      0.505980000000     0.669500000000     0.167935000000     0          
C60      C      0.537460000000     0.645550000000     0.160120000000     0          
C61      C      0.576600000000     0.640100000000     0.175455000000     0          
C62      C      0.584240000000     0.660650000000     0.197450000000     0          
C63      C      0.490180000000     0.601100000000     0.133955000000     0          
C64      C      0.484780000000     0.580550000000     0.109150000000     0          
C65      C      0.517740000000     0.586700000000     0.088390000000     0          
C66      C      0.556940000000     0.613400000000     0.090915000000     0          
C67      C      0.564120000000     0.633600000000     0.115595000000     0          
C68      C      0.446940000000     0.554750000000     0.107205000000     0          
C69      C      0.440680000000     0.535000000000     0.083950000000     0          
C70      C      0.471460000000     0.540650000000     0.062860000000     0          
C71      C      0.512240000000     0.566100000000     0.064870000000     0          
C72      C      0.547700000000     0.572000000000     0.045010000000     0          
C73      C      0.583700000000     0.599000000000     0.047745000000     0          
C74      C      0.588220000000     0.619550000000     0.070645000000     0          
C75      C      0.455040000000     0.522400000000     0.037585000000     0          
C76      C      0.554880000000     0.546450000000     0.022695000000     0          
N1       N      0.555180000000     0.934725000000     0.044760000000     0          
N2       N      0.530240000000     0.876450000000     0.114515000000     0          
N3       N      0.444820000000     0.815275000000     0.294760000000     0          
N4       N      0.469760000000     0.873550000000     0.364515000000     0          
N5       N      0.444820000000     0.565275000000     0.455240000000     0          
N6       N      0.469760000000     0.623550000000     0.385485000000     0          
N7       N      0.555180000000     0.684725000000     0.205240000000     0          
N8       N      0.530240000000     0.626450000000     0.135485000000     0          
O1       O      0.458040000000     0.791000000000     0.233175000000     0          
O2       O      0.435720000000     0.741160000000     0.210420000000     0          
O3       O      0.548240000000     0.763850000000     0.221465000000     0          
O4       O      0.570980000000     0.809150000000     0.248575000000     0          
O5       O      0.463080000000     0.847110000000     0.097415000000     0          
O6       O      0.597480000000     0.905950000000     0.130940000000     0          
O7       O      0.541960000000     0.959000000000     0.483175000000     0          
O8       O      0.564280000000     0.508840000000     0.460420000000     0          
O9       O      0.451760000000     0.986150000000     0.471465000000     0          
O10      O      0.429020000000     0.940850000000     0.498575000000     0          
O11      O      0.536920000000     0.902890000000     0.347415000000     0          
O12      O      0.402520000000     0.844050000000     0.380940000000     0          
O13      O      0.541960000000     0.709000000000     0.266825000000     0          
O14      O      0.564280000000     0.758840000000     0.289580000000     0          
O15      O      0.451760000000     0.736150000000     0.278535000000     0          
O16      O      0.429020000000     0.690850000000     0.251425000000     0          
O17      O      0.536920000000     0.652890000000     0.402585000000     0          
O18      O      0.402520000000     0.594050000000     0.369060000000     0          
O19      O      0.458040000000     0.541000000000     0.016825000000     0          
O20      O      0.435720000000     0.991160000000     0.039580000000     0          
O21      O      0.548240000000     0.513850000000     0.028535000000     0          
O22      O      0.570980000000     0.559150000000     0.001425000000     0          
O23      O      0.463080000000     0.597110000000     0.152585000000     0          
O24      O      0.597480000000     0.655950000000     0.119060000000     0          
Zn1      Zn     0.420600000000     0.780125000000     0.766660000000     0          
Zn2      Zn     0.579400000000     0.969875000000     0.516660000000     0          
Zn3      Zn     0.579400000000     0.719875000000     0.733340000000     0          
Zn4      Zn     0.420600000000     0.530125000000     0.983340000000     0          
H1       H      0.495060000000     0.955300000000     0.553700000000     0          
H2       H      0.478160000000     0.922650000000     0.592100000000     0          
H3       H      0.597400000000     0.872700000000     0.579150000000     0          
H4       H      0.411680000000     0.907750000000     0.542150000000     0          
H5       H      0.425400000000     0.800400000000     0.628450000000     0          
H6       H      0.414560000000     0.767200000000     0.667400000000     0          
H7       H      0.405900000000     0.853700000000     0.716250000000     0          
H8       H      0.413420000000     0.888050000000     0.677900000000     0          
H9       H      0.504940000000     0.794700000000     0.803700000000     0          
H10      H      0.521840000000     0.827350000000     0.842100000000     0          
H11      H      0.402600000000     0.877300000000     0.829150000000     0          
H12      H      0.588320000000     0.842250000000     0.792150000000     0          
H13      H      0.574600000000     0.949600000000     0.878450000000     0          
H14      H      0.585440000000     0.982800000000     0.917400000000     0          
H15      H      0.594100000000     0.896300000000     0.966250000000     0          
H16      H      0.586580000000     0.861950000000     0.927900000000     0          
H17      H      0.504940000000     0.544700000000     0.946300000000     0          
H18      H      0.521840000000     0.577350000000     0.907900000000     0          
H19      H      0.402600000000     0.627300000000     0.920850000000     0          
H20      H      0.588320000000     0.592250000000     0.957850000000     0          
H21      H      0.574600000000     0.699600000000     0.871550000000     0          
H22      H      0.585440000000     0.732800000000     0.832600000000     0          
H23      H      0.594100000000     0.646300000000     0.783750000000     0          
H24      H      0.586580000000     0.611950000000     0.822100000000     0          
H25      H      0.495060000000     0.705300000000     0.696300000000     0          
H26      H      0.478160000000     0.672650000000     0.657900000000     0          
H27      H      0.597400000000     0.622700000000     0.670850000000     0          
H28      H      0.411680000000     0.657750000000     0.707850000000     0          
H29      H      0.425400000000     0.550400000000     0.621550000000     0          
H30      H      0.414560000000     0.517200000000     0.582600000000     0          
H31      H      0.405900000000     0.603700000000     0.533750000000     0          
H32      H      0.413420000000     0.638050000000     0.572100000000     0          
C1       C      0.516260000000     0.938700000000     0.559305000000     0          
C2       C      0.505980000000     0.919500000000     0.582065000000     0          
C3       C      0.537460000000     0.895550000000     0.589880000000     0          
C4       C      0.576600000000     0.890100000000     0.574545000000     0          
C5       C      0.584240000000     0.910650000000     0.552550000000     0          
C6       C      0.490180000000     0.851100000000     0.616045000000     0          
C7       C      0.484780000000     0.830550000000     0.640850000000     0          
C8       C      0.517740000000     0.836700000000     0.661610000000     0          
C9       C      0.556940000000     0.863400000000     0.659085000000     0          
C10      C      0.564120000000     0.883600000000     0.634405000000     0          
C11      C      0.446940000000     0.804750000000     0.642795000000     0          
C12      C      0.440680000000     0.785000000000     0.666050000000     0          
C13      C      0.471460000000     0.790650000000     0.687140000000     0          
C14      C      0.512240000000     0.816100000000     0.685130000000     0          
C15      C      0.547700000000     0.822000000000     0.704990000000     0          
C16      C      0.583700000000     0.849000000000     0.702255000000     0          
C17      C      0.588220000000     0.869550000000     0.679355000000     0          
C18      C      0.455040000000     0.772400000000     0.712415000000     0          
C19      C      0.554880000000     0.796450000000     0.727305000000     0          
C20      C      0.483740000000     0.811300000000     0.809305000000     0          
C21      C      0.494020000000     0.830500000000     0.832065000000     0          
C22      C      0.462540000000     0.854450000000     0.839880000000     0          
C23      C      0.423400000000     0.859900000000     0.824545000000     0          
C24      C      0.415760000000     0.839350000000     0.802550000000     0          
C25      C      0.509820000000     0.898900000000     0.866045000000     0          
C26      C      0.515220000000     0.919450000000     0.890850000000     0          
C27      C      0.482260000000     0.913300000000     0.911610000000     0          
C28      C      0.443060000000     0.886600000000     0.909085000000     0          
C29      C      0.435880000000     0.866400000000     0.884405000000     0          
C30      C      0.553060000000     0.945250000000     0.892795000000     0          
C31      C      0.559320000000     0.965000000000     0.916050000000     0          
C32      C      0.528540000000     0.959350000000     0.937140000000     0          
C33      C      0.487760000000     0.933900000000     0.935130000000     0          
C34      C      0.452300000000     0.928000000000     0.954990000000     0          
C35      C      0.416300000000     0.901000000000     0.952255000000     0          
C36      C      0.411780000000     0.880450000000     0.929355000000     0          
C37      C      0.544960000000     0.977600000000     0.962415000000     0          
C38      C      0.445120000000     0.953550000000     0.977305000000     0          
C39      C      0.483740000000     0.561300000000     0.940695000000     0          
C40      C      0.494020000000     0.580500000000     0.917935000000     0          
C41      C      0.462540000000     0.604450000000     0.910120000000     0          
C42      C      0.423400000000     0.609900000000     0.925455000000     0          
C43      C      0.415760000000     0.589350000000     0.947450000000     0          
C44      C      0.509820000000     0.648900000000     0.883955000000     0          
C45      C      0.515220000000     0.669450000000     0.859150000000     0          
C46      C      0.482260000000     0.663300000000     0.838390000000     0          
C47      C      0.443060000000     0.636600000000     0.840915000000     0          
C48      C      0.435880000000     0.616400000000     0.865595000000     0          
C49      C      0.553060000000     0.695250000000     0.857205000000     0          
C50      C      0.559320000000     0.715000000000     0.833950000000     0          
C51      C      0.528540000000     0.709350000000     0.812860000000     0          
C52      C      0.487760000000     0.683900000000     0.814870000000     0          
C53      C      0.452300000000     0.678000000000     0.795010000000     0          
C54      C      0.416300000000     0.651000000000     0.797745000000     0          
C55      C      0.411780000000     0.630450000000     0.820645000000     0          
C56      C      0.544960000000     0.727600000000     0.787585000000     0          
C57      C      0.445120000000     0.703550000000     0.772695000000     0          
C58      C      0.516260000000     0.688700000000     0.690695000000     0          
C59      C      0.505980000000     0.669500000000     0.667935000000     0          
C60      C      0.537460000000     0.645550000000     0.660120000000     0          
C61      C      0.576600000000     0.640100000000     0.675455000000     0          
C62      C      0.584240000000     0.660650000000     0.697450000000     0          
C63      C      0.490180000000     0.601100000000     0.633955000000     0          
C64      C      0.484780000000     0.580550000000     0.609150000000     0          
C65      C      0.517740000000     0.586700000000     0.588390000000     0          
C66      C      0.556940000000     0.613400000000     0.590915000000     0          
C67      C      0.564120000000     0.633600000000     0.615595000000     0          
C68      C      0.446940000000     0.554750000000     0.607205000000     0          
C69      C      0.440680000000     0.535000000000     0.583950000000     0          
C70      C      0.471460000000     0.540650000000     0.562860000000     0          
C71      C      0.512240000000     0.566100000000     0.564870000000     0          
C72      C      0.547700000000     0.572000000000     0.545010000000     0          
C73      C      0.583700000000     0.599000000000     0.547745000000     0          
C74      C      0.588220000000     0.619550000000     0.570645000000     0          
C75      C      0.455040000000     0.522400000000     0.537585000000     0          
C76      C      0.554880000000     0.546450000000     0.522695000000     0          
N1       N      0.555180000000     0.934725000000     0.544760000000     0          
N2       N      0.530240000000     0.876450000000     0.614515000000     0          
N3       N      0.444820000000     0.815275000000     0.794760000000     0          
N4       N      0.469760000000     0.873550000000     0.864515000000     0          
N5       N      0.444820000000     0.565275000000     0.955240000000     0          
N6       N      0.469760000000     0.623550000000     0.885485000000     0          
N7       N      0.555180000000     0.684725000000     0.705240000000     0          
N8       N      0.530240000000     0.626450000000     0.635485000000     0          
O1       O      0.458040000000     0.791000000000     0.733175000000     0          
O2       O      0.435720000000     0.741160000000     0.710420000000     0          
O3       O      0.548240000000     0.763850000000     0.721465000000     0          
O4       O      0.570980000000     0.809150000000     0.748575000000     0          
O5       O      0.463080000000     0.847110000000     0.597415000000     0          
O6       O      0.597480000000     0.905950000000     0.630940000000     0          
O7       O      0.541960000000     0.959000000000     0.983175000000     0          
O8       O      0.564280000000     0.508840000000     0.960420000000     0          
O9       O      0.451760000000     0.986150000000     0.971465000000     0          
O10      O      0.429020000000     0.940850000000     0.998575000000     0          
O11      O      0.536920000000     0.902890000000     0.847415000000     0          
O12      O      0.402520000000     0.844050000000     0.880940000000     0          
O13      O      0.541960000000     0.709000000000     0.766825000000     0          
O14      O      0.564280000000     0.758840000000     0.789580000000     0          
O15      O      0.451760000000     0.736150000000     0.778535000000     0          
O16      O      0.429020000000     0.690850000000     0.751425000000     0          
O17      O      0.536920000000     0.652890000000     0.902585000000     0          
O18      O      0.402520000000     0.594050000000     0.869060000000     0          
O19      O      0.458040000000     0.541000000000     0.516825000000     0          
O20      O      0.435720000000     0.991160000000     0.539580000000     0          
O21      O      0.548240000000     0.513850000000     0.528535000000     0          
O22      O      0.570980000000     0.559150000000     0.501425000000     0          
O23      O      0.463080000000     0.597110000000     0.652585000000     0          
O24      O      0.597480000000     0.655950000000     0.619060000000     0          
Zn1      Zn     0.620600000000     0.280125000000     0.266660000000     0          
Zn2      Zn     0.779400000000     0.469875000000     0.016660000000     0          
Zn3      Zn     0.779400000000     0.219875000000     0.233340000000     0          
Zn4      Zn     0.620600000000     0.030125000000     0.483340000000     0          
H1       H      0.695060000000     0.455300000000     0.053700000000     0          
H2       H      0.678160000000     0.422650000000     0.092100000000     0          
H3       H      0.797400000000     0.372700000000     0.079150000000     0          
H4       H      0.611680000000     0.407750000000     0.042150000000     0          
H5       H      0.625400000000     0.300400000000     0.128450000000     0          
H6       H      0.614560000000     0.267200000000     0.167400000000     0          
H7       H      0.605900000000     0.353700000000     0.216250000000     0          
H8       H      0.613420000000     0.388050000000     0.177900000000     0          
H9       H      0.704940000000     0.294700000000     0.303700000000     0          
H10      H      0.721840000000     0.327350000000     0.342100000000     0          
H11      H      0.602600000000     0.377300000000     0.329150000000     0          
H12      H      0.788320000000     0.342250000000     0.292150000000     0          
H13      H      0.774600000000     0.449600000000     0.378450000000     0          
H14      H      0.785440000000     0.482800000000     0.417400000000     0          
H15      H      0.794100000000     0.396300000000     0.466250000000     0          
H16      H      0.786580000000     0.361950000000     0.427900000000     0          
H17      H      0.704940000000     0.044700000000     0.446300000000     0          
H18      H      0.721840000000     0.077350000000     0.407900000000     0          
H19      H      0.602600000000     0.127300000000     0.420850000000     0          
H20      H      0.788320000000     0.092250000000     0.457850000000     0          
H21      H      0.774600000000     0.199600000000     0.371550000000     0          
H22      H      0.785440000000     0.232800000000     0.332600000000     0          
H23      H      0.794100000000     0.146300000000     0.283750000000     0          
H24      H      0.786580000000     0.111950000000     0.322100000000     0          
H25      H      0.695060000000     0.205300000000     0.196300000000     0          
H26      H      0.678160000000     0.172650000000     0.157900000000     0          
H27      H      0.797400000000     0.122700000000     0.170850000000     0          
H28      H      0.611680000000     0.157750000000     0.207850000000     0          
H29      H      0.625400000000     0.050400000000     0.121550000000     0          
H30      H      0.614560000000     0.017200000000     0.082600000000     0          
H31      H      0.605900000000     0.103700000000     0.033750000000     0          
H32      H      0.613420000000     0.138050000000     0.072100000000     0          
C1       C      0.716260000000     0.438700000000     0.059305000000     0          
C2       C      0.705980000000     0.419500000000     0.082065000000     0          
C3       C      0.737460000000     0.395550000000     0.089880000000     0          
C4       C      0.776600000000     0.390100000000     0.074545000000     0          
C5       C      0.784240000000     0.410650000000     0.052550000000     0          
C6       C      0.690180000000     0.351100000000     0.116045000000     0          
C7       C      0.684780000000     0.330550000000     0.140850000000     0          
C8       C      0.717740000000     0.336700000000     0.161610000000     0          
C9       C      0.756940000000     0.363400000000     0.159085000000     0          
C10      C      0.764120000000     0.383600000000     0.134405000000     0          
C11      C      0.646940000000     0.304750000000     0.142795000000     0          
C12      C      0.640680000000     0.285000000000     0.166050000000     0          
C13      C      0.671460000000     0.290650000000     0.187140000000     0          
C14      C      0.712240000000     0.316100000000     0.185130000000     0          
C15      C      0.747700000000     0.322000000000     0.204990000000     0          
C16      C      0.783700000000     0.349000000000     0.202255000000     0          
C17      C      0.788220000000     0.369550000000     0.179355000000     0          
C18      C      0.655040000000     0.272400000000     0.212415000000     0          
C19      C      0.754880000000     0.296450000000     0.227305000000     0          
C20      C      0.683740000000     0.311300000000     0.309305000000     0          
C21      C      0.694020000000     0.330500000000     0.332065000000     0          
C22      C      0.662540000000     0.354450000000     0.339880000000     0          
C23      C      0.623400000000     0.359900000000     0.324545000000     0          
C24      C      0.615760000000     0.339350000000     0.302550000000     0          
C25      C      0.709820000000     0.398900000000     0.366045000000     0          
C26      C      0.715220000000     0.419450000000     0.390850000000     0          
C27      C      0.682260000000     0.413300000000     0.411610000000     0          
C28      C      0.643060000000     0.386600000000     0.409085000000     0          
C29      C      0.635880000000     0.366400000000     0.384405000000     0          
C30      C      0.753060000000     0.445250000000     0.392795000000     0          
C31      C      0.759320000000     0.465000000000     0.416050000000     0          
C32      C      0.728540000000     0.459350000000     0.437140000000     0          
C33      C      0.687760000000     0.433900000000     0.435130000000     0          
C34      C      0.652300000000     0.428000000000     0.454990000000     0          
C35      C      0.616300000000     0.401000000000     0.452255000000     0          
C36      C      0.611780000000     0.380450000000     0.429355000000     0          
C37      C      0.744960000000     0.477600000000     0.462415000000     0          
C38      C      0.645120000000     0.453550000000     0.477305000000     0          
C39      C      0.683740000000     0.061300000000     0.440695000000     0          
C40      C      0.694020000000     0.080500000000     0.417935000000     0          
C41      C      0.662540000000     0.104450000000     0.410120000000     0          
C42      C      0.623400000000     0.109900000000     0.425455000000     0          
C43      C      0.615760000000     0.089350000000     0.447450000000     0          
C44      C      0.709820000000     0.148900000000     0.383955000000     0          
C45      C      0.715220000000     0.169450000000     0.359150000000     0          
C46      C      0.682260000000     0.163300000000     0.338390000000     0          
C47      C      0.643060000000     0.136600000000     0.340915000000     0          
C48      C      0.635880000000     0.116400000000     0.365595000000     0          
C49      C      0.753060000000     0.195250000000     0.357205000000     0          
C50      C      0.759320000000     0.215000000000     0.333950000000     0          
C51      C      0.728540000000     0.209350000000     0.312860000000     0          
C52      C      0.687760000000     0.183900000000     0.314870000000     0          
C53      C      0.652300000000     0.178000000000     0.295010000000     0          
C54      C      0.616300000000     0.151000000000     0.297745000000     0          
C55      C      0.611780000000     0.130450000000     0.320645000000     0          
C56      C      0.744960000000     0.227600000000     0.287585000000     0          
C57      C      0.645120000000     0.203550000000     0.272695000000     0          
C58      C      0.716260000000     0.188700000000     0.190695000000     0          
C59      C      0.705980000000     0.169500000000     0.167935000000     0          
C60      C      0.737460000000     0.145550000000     0.160120000000     0          
C61      C      0.776600000000     0.140100000000     0.175455000000     0          
C62      C      0.784240000000     0.160650000000     0.197450000000     0          
C63      C      0.690180000000     0.101100000000     0.133955000000     0          
C64      C      0.684780000000     0.080550000000     0.109150000000     0          
C65      C      0.717740000000     0.086700000000     0.088390000000     0          
C66      C      0.756940000000     0.113400000000     0.090915000000     0          
C67      C      0.764120000000     0.133600000000     0.115595000000     0          
C68      C      0.646940000000     0.054750000000     0.107205000000     0          
C69      C      0.640680000000     0.035000000000     0.083950000000     0          
C70      C      0.671460000000     0.040650000000     0.062860000000     0          
C71      C      0.712240000000     0.066100000000     0.064870000000     0          
C72      C      0.747700000000     0.072000000000     0.045010000000     0          
C73      C      0.783700000000     0.099000000000     0.047745000000     0          
C74      C      0.788220000000     0.119550000000     0.070645000000     0          
C75      C      0.655040000000     0.022400000000     0.037585000000     0          
C76      C      0.754880000000     0.046450000000     0.022695000000     0          
N1       N      0.755180000000     0.434725000000     0.044760000000     0          
N2       N      0.730240000000     0.376450000000     0.114515000000     0          
N3       N      0.644820000000     0.315275000000     0.294760000000     0          
N4       N      0.669760000000     0.373550000000     0.364515000000     0          
N5       N      0.644820000000     0.065275000000     0.455240000000     0          
N6       N      0.669760000000     0.123550000000     0.385485000000     0          
N7       N      0.755180000000     0.184725000000     0.205240000000     0          
N8       N      0.730240000000     0.126450000000     0.135485000000     0          
O1       O      0.658040000000     0.291000000000     0.233175000000     0          
O2       O      0.635720000000     0.241160000000     0.210420000000     0          
O3       O      0.748240000000     0.263850000000     0.221465000000     0          
O4       O      0.770980000000     0.309150000000     0.248575000000     0          
O5       O      0.663080000000     0.347110000000     0.097415000000     0          
O6       O      0.797480000000     0.405950000000     0.130940000000     0          
O7       O      0.741960000000     0.459000000000     0.483175000000     0          
O8       O      0.764280000000     0.008840000000     0.460420000000     0          
O9       O      0.651760000000     0.486150000000     0.471465000000     0          
O10      O      0.629020000000     0.440850000000     0.498575000000     0          
O11      O      0.736920000000     0.402890000000     0.347415000000     0          
O12      O      0.602520000000     0.344050000000     0.380940000000     0          
O13      O      0.741960000000     0.209000000000     0.266825000000     0          
O14      O      0.764280000000     0.258840000000     0.289580000000     0          
O15      O      0.651760000000     0.236150000000     0.278535000000     0          
O16      O      0.629020000000     0.190850000000     0.251425000000     0          
O17      O      0.736920000000     0.152890000000     0.402585000000     0          
O18      O      0.602520000000     0.094050000000     0.369060000000     0          
O19      O      0.658040000000     0.041000000000     0.016825000000     0          
O20      O      0.635720000000     0.491160000000     0.039580000000     0          
O21      O      0.748240000000     0.013850000000     0.028535000000     0          
O22      O      0.770980000000     0.059150000000     0.001425000000     0          
O23      O      0.663080000000     0.097110000000     0.152585000000     0          
O24      O      0.797480000000     0.155950000000     0.119060000000     0          
Zn1      Zn     0.620600000000     0.280125000000     0.766660000000     0          
Zn2      Zn     0.779400000000     0.469875000000     0.516660000000     0          
Zn3      Zn     0.779400000000     0.219875000000     0.733340000000     0          
Zn4      Zn     0.620600000000     0.030125000000     0.983340000000     0          
H1       H      0.695060000000     0.455300000000     0.553700000000     0          
H2       H      0.678160000000     0.422650000000     0.592100000000     0          
H3       H      0.797400000000     0.372700000000     0.579150000000     0          
H4       H      0.611680000000     0.407750000000     0.542150000000     0          
H5       H      0.625400000000     0.300400000000     0.628450000000     0          
H6       H      0.614560000000     0.267200000000     0.667400000000     0          
H7       H      0.605900000000     0.353700000000     0.716250000000     0          
H8       H      0.613420000000     0.388050000000     0.677900000000     0          
H9       H      0.704940000000     0.294700000000     0.803700000000     0          
H10      H      0.721840000000     0.327350000000     0.842100000000     0          
H11      H      0.602600000000     0.377300000000     0.829150000000     0          
H12      H      0.788320000000     0.342250000000     0.792150000000     0          
H13      H      0.774600000000     0.449600000000     0.878450000000     0          
H14      H      0.785440000000     0.482800000000     0.917400000000     0          
H15      H      0.794100000000     0.396300000000     0.966250000000     0          
H16      H      0.786580000000     0.361950000000     0.927900000000     0          
H17      H      0.704940000000     0.044700000000     0.946300000000     0          
H18      H      0.721840000000     0.077350000000     0.907900000000     0          
H19      H      0.602600000000     0.127300000000     0.920850000000     0          
H20      H      0.788320000000     0.092250000000     0.957850000000     0          
H21      H      0.774600000000     0.199600000000     0.871550000000     0          
H22      H      0.785440000000     0.232800000000     0.832600000000     0          
H23      H      0.794100000000     0.146300000000     0.783750000000     0          
H24      H      0.786580000000     0.111950000000     0.822100000000     0          
H25      H      0.695060000000     0.205300000000     0.696300000000     0          
H26      H      0.678160000000     0.172650000000     0.657900000000     0          
H27      H      0.797400000000     0.122700000000     0.670850000000     0          
H28      H      0.611680000000     0.157750000000     0.707850000000     0          
H29      H      0.625400000000     0.050400000000     0.621550000000     0          
H30      H      0.614560000000     0.017200000000     0.582600000000     0          
H31      H      0.605900000000     0.103700000000     0.533750000000     0          
H32      H      0.613420000000     0.138050000000     0.572100000000     0          
C1       C      0.716260000000     0.438700000000     0.559305000000     0          
C2       C      0.705980000000     0.419500000000     0.582065000000     0          
C3       C      0.737460000000     0.395550000000     0.589880000000     0          
C4       C      0.776600000000     0.390100000000     0.574545000000     0          
C5       C      0.784240000000     0.410650000000     0.552550000000     0          
C6       C      0.690180000000     0.351100000000     0.616045000000     0          
C7       C      0.684780000000     0.330550000000     0.640850000000     0          
C8       C      0.717740000000     0.336700000000     0.661610000000     0          
C9       C      0.756940000000     0.363400000000     0.659085000000     0          
C10      C      0.764120000000     0.383600000000     0.634405000000     0          
C11      C      0.646940000000     0.304750000000     0.642795000000     0          
C12      C      0.640680000000     0.285000000000     0.666050000000     0          
C13      C      0.671460000000     0.290650000000     0.687140000000     0          
C14      C      0.712240000000     0.316100000000     0.685130000000     0          
C15      C      0.747700000000     0.322000000000     0.704990000000     0          
C16      C      0.783700000000     0.349000000000     0.702255000000     0          
C17      C      0.788220000000     0.369550000000     0.679355000000     0          
C18      C      0.655040000000     0.272400000000     0.712415000000     0          
C19      C      0.754880000000     0.296450000000     0.727305000000     0          
C20      C      0.683740000000     0.311300000000     0.809305000000     0          
C21      C      0.694020000000     0.330500000000     0.832065000000     0          
C22      C      0.662540000000     0.354450000000     0.839880000000     0          
C23      C      0.623400000000     0.359900000000     0.824545000000     0          
C24      C      0.615760000000     0.339350000000     0.802550000000     0          
C25      C      0.709820000000     0.398900000000     0.866045000000     0          
C26      C      0.715220000000     0.419450000000     0.890850000000     0          
C27      C      0.682260000000     0.413300000000     0.911610000000     0          
C28      C      0.643060000000     0.386600000000     0.909085000000     0          
C29      C      0.635880000000     0.366400000000     0.884405000000     0          
C30      C      0.753060000000     0.445250000000     0.892795000000     0          
C31      C      0.759320000000     0.465000000000     0.916050000000     0          
C32      C      0.728540000000     0.459350000000     0.937140000000     0          
C33      C      0.687760000000     0.433900000000     0.935130000000     0          
C34      C      0.652300000000     0.428000000000     0.954990000000     0          
C35      C      0.616300000000     0.401000000000     0.952255000000     0          
C36      C      0.611780000000     0.380450000000     0.929355000000     0          
C37      C      0.744960000000     0.477600000000     0.962415000000     0          
C38      C      0.645120000000     0.453550000000     0.977305000000     0          
C39      C      0.683740000000     0.061300000000     0.940695000000     0          
C40      C      0.694020000000     0.080500000000     0.917935000000     0          
C41      C      0.662540000000     0.104450000000     0.910120000000     0          
C42      C      0.623400000000     0.109900000000     0.925455000000     0          
C43      C      0.615760000000     0.089350000000     0.947450000000     0          
C44      C      0.709820000000     0.148900000000     0.883955000000     0          
C45      C      0.715220000000     0.169450000000     0.859150000000     0          
C46      C      0.682260000000     0.163300000000     0.838390000000     0          
C47      C      0.643060000000     0.136600000000     0.840915000000     0          
C48      C      0.635880000000     0.116400000000     0.865595000000     0          
C49      C      0.753060000000     0.195250000000     0.857205000000     0          
C50      C      0.759320000000     0.215000000000     0.833950000000     0          
C51      C      0.728540000000     0.209350000000     0.812860000000     0          
C52      C      0.687760000000     0.183900000000     0.814870000000     0          
C53      C      0.652300000000     0.178000000000     0.795010000000     0          
C54      C      0.616300000000     0.151000000000     0.797745000000     0          
C55      C      0.611780000000     0.130450000000     0.820645000000     0          
C56      C      0.744960000000     0.227600000000     0.787585000000     0          
C57      C      0.645120000000     0.203550000000     0.772695000000     0          
C58      C      0.716260000000     0.188700000000     0.690695000000     0          
C59      C      0.705980000000     0.169500000000     0.667935000000     0          
C60      C      0.737460000000     0.145550000000     0.660120000000     0          
C61      C      0.776600000000     0.140100000000     0.675455000000     0          
C62      C      0.784240000000     0.160650000000     0.697450000000     0          
C63      C      0.690180000000     0.101100000000     0.633955000000     0          
C64      C      0.684780000000     0.080550000000     0.609150000000     0          
C65      C      0.717740000000     0.086700000000     0.588390000000     0          
C66      C      0.756940000000     0.113400000000     0.590915000000     0          
C67      C      0.764120000000     0.133600000000     0.615595000000     0          
C68      C      0.646940000000     0.054750000000     0.607205000000     0          
C69      C      0.640680000000     0.035000000000     0.583950000000     0          
C70      C      0.671460000000     0.040650000000     0.562860000000     0          
C71      C      0.712240000000     0.066100000000     0.564870000000     0          
C72      C      0.747700000000     0.072000000000     0.545010000000     0          
C73      C      0.783700000000     0.099000000000     0.547745000000     0          
C74      C      0.788220000000     0.119550000000     0.570645000000     0          
C75      C      0.655040000000     0.022400000000     0.537585000000     0          
C76      C      0.754880000000     0.046450000000     0.522695000000     0          
N1       N      0.755180000000     0.434725000000     0.544760000000     0          
N2       N      0.730240000000     0.376450000000     0.614515000000     0          
N3       N      0.644820000000     0.315275000000     0.794760000000     0          
N4       N      0.669760000000     0.373550000000     0.864515000000     0          
N5       N      0.644820000000     0.065275000000     0.955240000000     0          
N6       N      0.669760000000     0.123550000000     0.885485000000     0          
N7       N      0.755180000000     0.184725000000     0.705240000000     0          
N8       N      0.730240000000     0.126450000000     0.635485000000     0          
O1       O      0.658040000000     0.291000000000     0.733175000000     0          
O2       O      0.635720000000     0.241160000000     0.710420000000     0          
O3       O      0.748240000000     0.263850000000     0.721465000000     0          
O4       O      0.770980000000     0.309150000000     0.748575000000     0          
O5       O      0.663080000000     0.347110000000     0.597415000000     0          
O6       O      0.797480000000     0.405950000000     0.630940000000     0          
O7       O      0.741960000000     0.459000000000     0.983175000000     0          
O8       O      0.764280000000     0.008840000000     0.960420000000     0          
O9       O      0.651760000000     0.486150000000     0.971465000000     0          
O10      O      0.629020000000     0.440850000000     0.998575000000     0          
O11      O      0.736920000000     0.402890000000     0.847415000000     0          
O12      O      0.602520000000     0.344050000000     0.880940000000     0          
O13      O      0.741960000000     0.209000000000     0.766825000000     0          
O14      O      0.764280000000     0.258840000000     0.789580000000     0          
O15      O      0.651760000000     0.236150000000     0.778535000000     0          
O16      O      0.629020000000     0.190850000000     0.751425000000     0          
O17      O      0.736920000000     0.152890000000     0.902585000000     0          
O18      O      0.602520000000     0.094050000000     0.869060000000     0          
O19      O      0.658040000000     0.041000000000     0.516825000000     0          
O20      O      0.635720000000     0.491160000000     0.539580000000     0          
O21      O      0.748240000000     0.013850000000     0.528535000000     0          
O22      O      0.770980000000     0.059150000000     0.501425000000     0          
O23      O      0.663080000000     0.097110000000     0.652585000000     0          
O24      O      0.797480000000     0.155950000000     0.619060000000     0          
Zn1      Zn     0.620600000000     0.780125000000     0.266660000000     0          
Zn2      Zn     0.779400000000     0.969875000000     0.016660000000     0          
Zn3      Zn     0.779400000000     0.719875000000     0.233340000000     0          
Zn4      Zn     0.620600000000     0.530125000000     0.483340000000     0          
H1       H      0.695060000000     0.955300000000     0.053700000000     0          
H2       H      0.678160000000     0.922650000000     0.092100000000     0          
H3       H      0.797400000000     0.872700000000     0.079150000000     0          
H4       H      0.611680000000     0.907750000000     0.042150000000     0          
H5       H      0.625400000000     0.800400000000     0.128450000000     0          
H6       H      0.614560000000     0.767200000000     0.167400000000     0          
H7       H      0.605900000000     0.853700000000     0.216250000000     0          
H8       H      0.613420000000     0.888050000000     0.177900000000     0          
H9       H      0.704940000000     0.794700000000     0.303700000000     0          
H10      H      0.721840000000     0.827350000000     0.342100000000     0          
H11      H      0.602600000000     0.877300000000     0.329150000000     0          
H12      H      0.788320000000     0.842250000000     0.292150000000     0          
H13      H      0.774600000000     0.949600000000     0.378450000000     0          
H14      H      0.785440000000     0.982800000000     0.417400000000     0          
H15      H      0.794100000000     0.896300000000     0.466250000000     0          
H16      H      0.786580000000     0.861950000000     0.427900000000     0          
H17      H      0.704940000000     0.544700000000     0.446300000000     0          
H18      H      0.721840000000     0.577350000000     0.407900000000     0          
H19      H      0.602600000000     0.627300000000     0.420850000000     0          
H20      H      0.788320000000     0.592250000000     0.457850000000     0          
H21      H      0.774600000000     0.699600000000     0.371550000000     0          
H22      H      0.785440000000     0.732800000000     0.332600000000     0          
H23      H      0.794100000000     0.646300000000     0.283750000000     0          
H24      H      0.786580000000     0.611950000000     0.322100000000     0          
H25      H      0.695060000000     0.705300000000     0.196300000000     0          
H26      H      0.678160000000     0.672650000000     0.157900000000     0          
H27      H      0.797400000000     0.622700000000     0.170850000000     0          
H28      H      0.611680000000     0.657750000000     0.207850000000     0          
H29      H      0.625400000000     0.550400000000     0.121550000000     0          
H30      H      0.614560000000     0.517200000000     0.082600000000     0          
H31      H      0.605900000000     0.603700000000     0.033750000000     0          
H32      H      0.613420000000     0.638050000000     0.072100000000     0          
C1       C      0.716260000000     0.938700000000     0.059305000000     0          
C2       C      0.705980000000     0.919500000000     0.082065000000     0          
C3       C      0.737460000000     0.895550000000     0.089880000000     0          
C4       C      0.776600000000     0.890100000000     0.074545000000     0          
C5       C      0.784240000000     0.910650000000     0.052550000000     0          
C6       C      0.690180000000     0.851100000000     0.116045000000     0          
C7       C      0.684780000000     0.830550000000     0.140850000000     0          
C8       C      0.717740000000     0.836700000000     0.161610000000     0          
C9       C      0.756940000000     0.863400000000     0.159085000000     0          
C10      C      0.764120000000     0.883600000000     0.134405000000     0          
C11      C      0.646940000000     0.804750000000     0.142795000000     0          
C12      C      0.640680000000     0.785000000000     0.166050000000     0          
C13      C      0.671460000000     0.790650000000     0.187140000000     0          
C14      C      0.712240000000     0.816100000000     0.185130000000     0          
C15      C      0.747700000000     0.822000000000     0.204990000000     0          
C16      C      0.783700000000     0.849000000000     0.202255000000     0          
C17      C      0.788220000000     0.869550000000     0.179355000000     0          
C18      C      0.655040000000     0.772400000000     0.212415000000     0          
C19      C      0.754880000000     0.796450000000     0.227305000000     0          
C20      C      0.683740000000     0.811300000000     0.309305000000     0          
C21      C      0.694020000000     0.830500000000     0.332065000000     0          
C22      C      0.662540000000     0.854450000000     0.339880000000     0          
C23      C      0.623400000000     0.859900000000     0.324545000000     0          
C24      C      0.615760000000     0.839350000000     0.302550000000     0          
C25      C      0.709820000000     0.898900000000     0.366045000000     0          
C26      C      0.715220000000     0.919450000000     0.390850000000     0          
C27      C      0.682260000000     0.913300000000     0.411610000000     0          
C28      C      0.643060000000     0.886600000000     0.409085000000     0          
C29      C      0.635880000000     0.866400000000     0.384405000000     0          
C30      C      0.753060000000     0.945250000000     0.392795000000     0          
C31      C      0.759320000000     0.965000000000     0.416050000000     0          
C32      C      0.728540000000     0.959350000000     0.437140000000     0          
C33      C      0.687760000000     0.933900000000     0.435130000000     0          
C34      C      0.652300000000     0.928000000000     0.454990000000     0          
C35      C      0.616300000000     0.901000000000     0.452255000000     0          
C36      C      0.611780000000     0.880450000000     0.429355000000     0          
C37      C      0.744960000000     0.977600000000     0.462415000000     0          
C38      C      0.645120000000     0.953550000000     0.477305000000     0          
C39      C      0.683740000000     0.561300000000     0.440695000000     0          
C40      C      0.694020000000     0.580500000000     0.417935000000     0          
C41      C      0.662540000000     0.604450000000     0.410120000000     0          
C42      C      0.623400000000     0.609900000000     0.425455000000     0          
C43      C      0.615760000000     0.589350000000     0.447450000000     0          
C44      C      0.709820000000     0.648900000000     0.383955000000     0          
C45      C      0.715220000000     0.669450000000     0.359150000000     0          
C46      C      0.682260000000     0.663300000000     0.338390000000     0          
C47      C      0.643060000000     0.636600000000     0.340915000000     0          
C48      C      0.635880000000     0.616400000000     0.365595000000     0          
C49      C      0.753060000000     0.695250000000     0.357205000000     0          
C50      C      0.759320000000     0.715000000000     0.333950000000     0          
C51      C      0.728540000000     0.709350000000     0.312860000000     0          
C52      C      0.687760000000     0.683900000000     0.314870000000     0          
C53      C      0.652300000000     0.678000000000     0.295010000000     0          
C54      C      0.616300000000     0.651000000000     0.297745000000     0          
C55      C      0.611780000000     0.630450000000     0.320645000000     0          
C56      C      0.744960000000     0.727600000000     0.287585000000     0          
C57      C      0.645120000000     0.703550000000     0.272695000000     0          
C58      C      0.716260000000     0.688700000000     0.190695000000     0          
C59      C      0.705980000000     0.669500000000     0.167935000000     0          
C60      C      0.737460000000     0.645550000000     0.160120000000     0          
C61      C      0.776600000000     0.640100000000     0.175455000000     0          
C62      C      0.784240000000     0.660650000000     0.197450000000     0          
C63      C      0.690180000000     0.601100000000     0.133955000000     0          
C64      C      0.684780000000     0.580550000000     0.109150000000     0          
C65      C      0.717740000000     0.586700000000     0.088390000000     0          
C66      C      0.756940000000     0.613400000000     0.090915000000     0          
C67      C      0.764120000000     0.633600000000     0.115595000000     0          
C68      C      0.646940000000     0.554750000000     0.107205000000     0          
C69      C      0.640680000000     0.535000000000     0.083950000000     0          
C70      C      0.671460000000     0.540650000000     0.062860000000     0          
C71      C      0.712240000000     0.566100000000     0.064870000000     0          
C72      C      0.747700000000     0.572000000000     0.045010000000     0          
C73      C      0.783700000000     0.599000000000     0.047745000000     0          
C74      C      0.788220000000     0.619550000000     0.070645000000     0          
C75      C      0.655040000000     0.522400000000     0.037585000000     0          
C76      C      0.754880000000     0.546450000000     0.022695000000     0          
N1       N      0.755180000000     0.934725000000     0.044760000000     0          
N2       N      0.730240000000     0.876450000000     0.114515000000     0          
N3       N      0.644820000000     0.815275000000     0.294760000000     0          
N4       N      0.669760000000     0.873550000000     0.364515000000     0          
N5       N      0.644820000000     0.565275000000     0.455240000000     0          
N6       N      0.669760000000     0.623550000000     0.385485000000     0          
N7       N      0.755180000000     0.684725000000     0.205240000000     0          
N8       N      0.730240000000     0.626450000000     0.135485000000     0          
O1       O      0.658040000000     0.791000000000     0.233175000000     0          
O2       O      0.635720000000     0.741160000000     0.210420000000     0          
O3       O      0.748240000000     0.763850000000     0.221465000000     0          
O4       O      0.770980000000     0.809150000000     0.248575000000     0          
O5       O      0.663080000000     0.847110000000     0.097415000000     0          
O6       O      0.797480000000     0.905950000000     0.130940000000     0          
O7       O      0.741960000000     0.959000000000     0.483175000000     0          
O8       O      0.764280000000     0.508840000000     0.460420000000     0          
O9       O      0.651760000000     0.986150000000     0.471465000000     0          
O10      O      0.629020000000     0.940850000000     0.498575000000     0          
O11      O      0.736920000000     0.902890000000     0.347415000000     0          
O12      O      0.602520000000     0.844050000000     0.380940000000     0          
O13      O      0.741960000000     0.709000000000     0.266825000000     0          
O14      O      0.764280000000     0.758840000000     0.289580000000     0          
O15      O      0.651760000000     0.736150000000     0.278535000000     0          
O16      O      0.629020000000     0.690850000000     0.251425000000     0          
O17      O      0.736920000000     0.652890000000     0.402585000000     0          
O18      O      0.602520000000     0.594050000000     0.369060000000     0          
O19      O      0.658040000000     0.541000000000     0.016825000000     0          
O20      O      0.635720000000     0.991160000000     0.039580000000     0          
O21      O      0.748240000000     0.513850000000     0.028535000000     0          
O22      O      0.770980000000     0.559150000000     0.001425000000     0          
O23      O      0.663080000000     0.597110000000     0.152585000000     0          
O24      O      0.797480000000     0.655950000000     0.119060000000     0          
Zn1      Zn     0.620600000000     0.780125000000     0.766660000000     0          
Zn2      Zn     0.779400000000     0.969875000000     0.516660000000     0          
Zn3      Zn     0.779400000000     0.719875000000     0.733340000000     0          
Zn4      Zn     0.620600000000     0.530125000000     0.983340000000     0          
H1       H      0.695060000000     0.955300000000     0.553700000000     0          
H2       H      0.678160000000     0.922650000000     0.592100000000     0          
H3       H      0.797400000000     0.872700000000     0.579150000000     0          
H4       H      0.611680000000     0.907750000000     0.542150000000     0          
H5       H      0.625400000000     0.800400000000     0.628450000000     0          
H6       H      0.614560000000     0.767200000000     0.667400000000     0          
H7       H      0.605900000000     0.853700000000     0.716250000000     0          
H8       H      0.613420000000     0.888050000000     0.677900000000     0          
H9       H      0.704940000000     0.794700000000     0.803700000000     0          
H10      H      0.721840000000     0.827350000000     0.842100000000     0          
H11      H      0.602600000000     0.877300000000     0.829150000000     0          
H12      H      0.788320000000     0.842250000000     0.792150000000     0          
H13      H      0.774600000000     0.949600000000     0.878450000000     0          
H14      H      0.785440000000     0.982800000000     0.917400000000     0          
H15      H      0.794100000000     0.896300000000     0.966250000000     0          
H16      H      0.786580000000     0.861950000000     0.927900000000     0          
H17      H      0.704940000000     0.544700000000     0.946300000000     0          
H18      H      0.721840000000     0.577350000000     0.907900000000     0          
H19      H      0.602600000000     0.627300000000     0.920850000000     0          
H20      H      0.788320000000     0.592250000000     0.957850000000     0          
H21      H      0.774600000000     0.699600000000     0.871550000000     0          
H22      H      0.785440000000     0.732800000000     0.832600000000     0          
H23      H      0.794100000000     0.646300000000     0.783750000000     0          
H24      H      0.786580000000     0.611950000000     0.822100000000     0          
H25      H      0.695060000000     0.705300000000     0.696300000000     0          
H26      H      0.678160000000     0.672650000000     0.657900000000     0          
H27      H      0.797400000000     0.622700000000     0.670850000000     0          
H28      H      0.611680000000     0.657750000000     0.707850000000     0          
H29      H      0.625400000000     0.550400000000     0.621550000000     0          
H30      H      0.614560000000     0.517200000000     0.582600000000     0          
H31      H      0.605900000000     0.603700000000     0.533750000000     0          
H32      H      0.613420000000     0.638050000000     0.572100000000     0          
C1       C      0.716260000000     0.938700000000     0.559305000000     0          
C2       C      0.705980000000     0.919500000000     0.582065000000     0          
C3       C      0.737460000000     0.895550000000     0.589880000000     0          
C4       C      0.776600000000     0.890100000000     0.574545000000     0          
C5       C      0.784240000000     0.910650000000     0.552550000000     0          
C6       C      0.690180000000     0.851100000000     0.616045000000     0          
C7       C      0.684780000000     0.830550000000     0.640850000000     0          
C8       C      0.717740000000     0.836700000000     0.661610000000     0          
C9       C      0.756940000000     0.863400000000     0.659085000000     0          
C10      C      0.764120000000     0.883600000000     0.634405000000     0          
C11      C      0.646940000000     0.804750000000     0.642795000000     0          
C12      C      0.640680000000     0.785000000000     0.666050000000     0          
C13      C      0.671460000000     0.790650000000     0.687140000000     0          
C14      C      0.712240000000     0.816100000000     0.685130000000     0          
C15      C      0.747700000000     0.822000000000     0.704990000000     0          
C16      C      0.783700000000     0.849000000000     0.702255000000     0          
C17      C      0.788220000000     0.869550000000     0.679355000000     0          
C18      C      0.655040000000     0.772400000000     0.712415000000     0          
C19      C      0.754880000000     0.796450000000     0.727305000000     0          
C20      C      0.683740000000     0.811300000000     0.809305000000     0          
C21      C      0.694020000000     0.830500000000     0.832065000000     0          
C22      C      0.662540000000     0.854450000000     0.839880000000     0          
C23      C      0.623400000000     0.859900000000     0.824545000000     0          
C24      C      0.615760000000     0.839350000000     0.802550000000     0          
C25      C      0.709820000000     0.898900000000     0.866045000000     0          
C26      C      0.715220000000     0.919450000000     0.890850000000     0          
C27      C      0.682260000000     0.913300000000     0.911610000000     0          
C28      C      0.643060000000     0.886600000000     0.909085000000     0          
C29      C      0.635880000000     0.866400000000     0.884405000000     0          
C30      C      0.753060000000     0.945250000000     0.892795000000     0          
C31      C      0.759320000000     0.965000000000     0.916050000000     0          
C32      C      0.728540000000     0.959350000000     0.937140000000     0          
C33      C      0.687760000000     0.933900000000     0.935130000000     0          
C34      C      0.652300000000     0.928000000000     0.954990000000     0          
C35      C      0.616300000000     0.901000000000     0.952255000000     0          
C36      C      0.611780000000     0.880450000000     0.929355000000     0          
C37      C      0.744960000000     0.977600000000     0.962415000000     0          
C38      C      0.645120000000     0.953550000000     0.977305000000     0          
C39      C      0.683740000000     0.561300000000     0.940695000000     0          
C40      C      0.694020000000     0.580500000000     0.917935000000     0          
C41      C      0.662540000000     0.604450000000     0.910120000000     0          
C42      C      0.623400000000     0.609900000000     0.925455000000     0          
C43      C      0.615760000000     0.589350000000     0.947450000000     0          
C44      C      0.709820000000     0.648900000000     0.883955000000     0          
C45      C      0.715220000000     0.669450000000     0.859150000000     0          
C46      C      0.682260000000     0.663300000000     0.838390000000     0          
C47      C      0.643060000000     0.636600000000     0.840915000000     0          
C48      C      0.635880000000     0.616400000000     0.865595000000     0          
C49      C      0.753060000000     0.695250000000     0.857205000000     0          
C50      C      0.759320000000     0.715000000000     0.833950000000     0          
C51      C      0.728540000000     0.709350000000     0.812860000000     0          
C52      C      0.687760000000     0.683900000000     0.814870000000     0          
C53      C      0.652300000000     0.678000000000     0.795010000000     0          
C54      C      0.616300000000     0.651000000000     0.797745000000     0          
C55      C      0.611780000000     0.630450000000     0.820645000000     0          
C56      C      0.744960000000     0.727600000000     0.787585000000     0          
C57      C      0.645120000000     0.703550000000     0.772695000000     0          
C58      C      0.716260000000     0.688700000000     0.690695000000     0          
C59      C      0.705980000000     0.669500000000     0.667935000000     0          
C60      C      0.737460000000     0.645550000000     0.660120000000     0          
C61      C      0.776600000000     0.640100000000     0.675455000000     0          
C62      C      0.784240000000     0.660650000000     0.697450000000     0          
C63      C      0.690180000000     0.601100000000     0.633955000000     0          
C64      C      0.684780000000     0.580550000000     0.609150000000     0          
C65      C      0.717740000000     0.586700000000     0.588390000000     0          
C66      C      0.756940000000     0.613400000000     0.590915000000     0          
C67      C      0.764120000000     0.633600000000     0.615595000000     0          
C68      C      0.646940000000     0.554750000000     0.607205000000     0          
C69      C      0.640680000000     0.535000000000     0.583950000000     0          
C70      C      0.671460000000     0.540650000000     0.562860000000     0          
C71      C      0.712240000000     0.566100000000     0.564870000000     0          
C72      C      0.747700000000     0.572000000000     0.545010000000     0          
C73      C      0.783700000000     0.599000000000     0.547745000000     0          
C74      C      0.788220000000     0.619550000000     0.570645000000     0          
C75      C      0.655040000000     0.522400000000     0.537585000000     0          
C76      C      0.754880000000     0.546450000000     0.522695000000     0          
N1       N      0.755180000000     0.934725000000     0.544760000000     0          
N2       N      0.730240000000     0.876450000000     0.614515000000     0          
N3       N      0.644820000000     0.815275000000     0.794760000000     0          
N4       N      0.669760000000     0.873550000000     0.864515000000     0          
N5       N      0.644820000000     0.565275000000     0.955240000000     0          
N6       N      0.669760000000     0.623550000000     0.885485000000     0          
N7       N      0.755180000000     0.684725000000     0.705240000000     0          
N8       N      0.730240000000     0.626450000000     0.635485000000     0          
O1       O      0.658040000000     0.791000000000     0.733175000000     0          
O2       O      0.635720000000     0.741160000000     0.710420000000     0          
O3       O      0.748240000000     0.763850000000     0.721465000000     0          
O4       O      0.770980000000     0.809150000000     0.748575000000     0          
O5       O      0.663080000000     0.847110000000     0.597415000000     0          
O6       O      0.797480000000     0.905950000000     0.630940000000     0          
O7       O      0.741960000000     0.959000000000     0.983175000000     0          
O8       O      0.764280000000     0.508840000000     0.960420000000     0          
O9       O      0.651760000000     0.986150000000     0.971465000000     0          
O10      O      0.629020000000     0.940850000000     0.998575000000     0          
O11      O      0.736920000000     0.902890000000     0.847415000000     0          
O12      O      0.602520000000     0.844050000000     0.880940000000     0          
O13      O      0.741960000000     0.709000000000     0.766825000000     0          
O14      O      0.764280000000     0.758840000000     0.789580000000     0          
O15      O      0.651760000000     0.736150000000     0.778535000000     0          
O16      O      0.629020000000     0.690850000000     0.751425000000     0          
O17      O      0.736920000000     0.652890000000     0.902585000000     0          
O18      O      0.602520000000     0.594050000000     0.869060000000     0          
O19      O      0.658040000000     0.541000000000     0.516825000000     0          
O20      O      0.635720000000     0.991160000000     0.539580000000     0          
O21      O      0.748240000000     0.513850000000     0.528535000000     0          
O22      O      0.770980000000     0.559150000000     0.501425000000     0          
O23      O      0.663080000000     0.597110000000     0.652585000000     0          
O24      O      0.797480000000     0.655950000000     0.619060000000     0          
Zn1      Zn     0.820600000000     0.280125000000     0.266660000000     0          
Zn2      Zn     0.979400000000     0.469875000000     0.016660000000     0          
Zn3      Zn     0.979400000000     0.219875000000     0.233340000000     0          
Zn4      Zn     0.820600000000     0.030125000000     0.483340000000     0          
H1       H      0.895060000000     0.455300000000     0.053700000000     0          
H2       H      0.878160000000     0.422650000000     0.092100000000     0          
H3       H      0.997400000000     0.372700000000     0.079150000000     0          
H4       H      0.811680000000     0.407750000000     0.042150000000     0          
H5       H      0.825400000000     0.300400000000     0.128450000000     0          
H6       H      0.814560000000     0.267200000000     0.167400000000     0          
H7       H      0.805900000000     0.353700000000     0.216250000000     0          
H8       H      0.813420000000     0.388050000000     0.177900000000     0          
H9       H      0.904940000000     0.294700000000     0.303700000000     0          
H10      H      0.921840000000     0.327350000000     0.342100000000     0          
H11      H      0.802600000000     0.377300000000     0.329150000000     0          
H12      H      0.988320000000     0.342250000000     0.292150000000     0          
H13      H      0.974600000000     0.449600000000     0.378450000000     0          
H14      H      0.985440000000     0.482800000000     0.417400000000     0          
H15      H      0.994100000000     0.396300000000     0.466250000000     0          
H16      H      0.986580000000     0.361950000000     0.427900000000     0          
H17      H      0.904940000000     0.044700000000     0.446300000000     0          
H18      H      0.921840000000     0.077350000000     0.407900000000     0          
H19      H      0.802600000000     0.127300000000     0.420850000000     0          
H20      H      0.988320000000     0.092250000000     0.457850000000     0          
H21      H      0.974600000000     0.199600000000     0.371550000000     0          
H22      H      0.985440000000     0.232800000000     0.332600000000     0          
H23      H      0.994100000000     0.146300000000     0.283750000000     0          
H24      H      0.986580000000     0.111950000000     0.322100000000     0          
H25      H      0.895060000000     0.205300000000     0.196300000000     0          
H26      H      0.878160000000     0.172650000000     0.157900000000     0          
H27      H      0.997400000000     0.122700000000     0.170850000000     0          
H28      H      0.811680000000     0.157750000000     0.207850000000     0          
H29      H      0.825400000000     0.050400000000     0.121550000000     0          
H30      H      0.814560000000     0.017200000000     0.082600000000     0          
H31      H      0.805900000000     0.103700000000     0.033750000000     0          
H32      H      0.813420000000     0.138050000000     0.072100000000     0          
C1       C      0.916260000000     0.438700000000     0.059305000000     0          
C2       C      0.905980000000     0.419500000000     0.082065000000     0          
C3       C      0.937460000000     0.395550000000     0.089880000000     0          
C4       C      0.976600000000     0.390100000000     0.074545000000     0          
C5       C      0.984240000000     0.410650000000     0.052550000000     0          
C6       C      0.890180000000     0.351100000000     0.116045000000     0          
C7       C      0.884780000000     0.330550000000     0.140850000000     0          
C8       C      0.917740000000     0.336700000000     0.161610000000     0          
C9       C      0.956940000000     0.363400000000     0.159085000000     0          
C10      C      0.964120000000     0.383600000000     0.134405000000     0          
C11      C      0.846940000000     0.304750000000     0.142795000000     0          
C12      C      0.840680000000     0.285000000000     0.166050000000     0          
C13      C      0.871460000000     0.290650000000     0.187140000000     0          
C14      C      0.912240000000     0.316100000000     0.185130000000     0          
C15      C      0.947700000000     0.322000000000     0.204990000000     0          
C16      C      0.983700000000     0.349000000000     0.202255000000     0          
C17      C      0.988220000000     0.369550000000     0.179355000000     0          
C18      C      0.855040000000     0.272400000000     0.212415000000     0          
C19      C      0.954880000000     0.296450000000     0.227305000000     0          
C20      C      0.883740000000     0.311300000000     0.309305000000     0          
C21      C      0.894020000000     0.330500000000     0.332065000000     0          
C22      C      0.862540000000     0.354450000000     0.339880000000     0          
C23      C      0.823400000000     0.359900000000     0.324545000000     0          
C24      C      0.815760000000     0.339350000000     0.302550000000     0          
C25      C      0.909820000000     0.398900000000     0.366045000000     0          
C26      C      0.915220000000     0.419450000000     0.390850000000     0          
C27      C      0.882260000000     0.413300000000     0.411610000000     0          
C28      C      0.843060000000     0.386600000000     0.409085000000     0          
C29      C      0.835880000000     0.366400000000     0.384405000000     0          
C30      C      0.953060000000     0.445250000000     0.392795000000     0          
C31      C      0.959320000000     0.465000000000     0.416050000000     0          
C32      C      0.928540000000     0.459350000000     0.437140000000     0          
C33      C      0.887760000000     0.433900000000     0.435130000000     0          
C34      C      0.852300000000     0.428000000000     0.454990000000     0          
C35      C      0.816300000000     0.401000000000     0.452255000000     0          
C36      C      0.811780000000     0.380450000000     0.429355000000     0          
C37      C      0.944960000000     0.477600000000     0.462415000000     0          
C38      C      0.845120000000     0.453550000000     0.477305000000     0          
C39      C      0.883740000000     0.061300000000     0.440695000000     0          
C40      C      0.894020000000     0.080500000000     0.417935000000     0          
C41      C      0.862540000000     0.104450000000     0.410120000000     0          
C42      C      0.823400000000     0.109900000000     0.425455000000     0          
C43      C      0.815760000000     0.089350000000     0.447450000000     0          
C44      C      0.909820000000     0.148900000000     0.383955000000     0          
C45      C      0.915220000000     0.169450000000     0.359150000000     0          
C46      C      0.882260000000     0.163300000000     0.338390000000     0          
C47      C      0.843060000000     0.136600000000     0.340915000000     0          
C48      C      0.835880000000     0.116400000000     0.365595000000     0          
C49      C      0.953060000000     0.195250000000     0.357205000000     0          
C50      C      0.959320000000     0.215000000000     0.333950000000     0          
C51      C      0.928540000000     0.209350000000     0.312860000000     0          
C52      C      0.887760000000     0.183900000000     0.314870000000     0          
C53      C      0.852300000000     0.178000000000     0.295010000000     0          
C54      C      0.816300000000     0.151000000000     0.297745000000     0          
C55      C      0.811780000000     0.130450000000     0.320645000000     0          
C56      C      0.944960000000     0.227600000000     0.287585000000     0          
C57      C      0.845120000000     0.203550000000     0.272695000000     0          
C58      C      0.916260000000     0.188700000000     0.190695000000     0          
C59      C      0.905980000000     0.169500000000     0.167935000000     0          
C60      C      0.937460000000     0.145550000000     0.160120000000     0          
C61      C      0.976600000000     0.140100000000     0.175455000000     0          
C62      C      0.984240000000     0.160650000000     0.197450000000     0          
C63      C      0.890180000000     0.101100000000     0.133955000000     0          
C64      C      0.884780000000     0.080550000000     0.109150000000     0          
C65      C      0.917740000000     0.086700000000     0.088390000000     0          
C66      C      0.956940000000     0.113400000000     0.090915000000     0          
C67      C      0.964120000000     0.133600000000     0.115595000000     0          
C68      C      0.846940000000     0.054750000000     0.107205000000     0          
C69      C      0.840680000000     0.035000000000     0.083950000000     0          
C70      C      0.871460000000     0.040650000000     0.062860000000     0          
C71      C      0.912240000000     0.066100000000     0.064870000000     0          
C72      C      0.947700000000     0.072000000000     0.045010000000     0          
C73      C      0.983700000000     0.099000000000     0.047745000000     0          
C74      C      0.988220000000     0.119550000000     0.070645000000     0          
C75      C      0.855040000000     0.022400000000     0.037585000000     0          
C76      C      0.954880000000     0.046450000000     0.022695000000     0          
N1       N      0.955180000000     0.434725000000     0.044760000000     0          
N2       N      0.930240000000     0.376450000000     0.114515000000     0          
N3       N      0.844820000000     0.315275000000     0.294760000000     0          
N4       N      0.869760000000     0.373550000000     0.364515000000     0          
N5       N      0.844820000000     0.065275000000     0.455240000000     0          
N6       N      0.869760000000     0.123550000000     0.385485000000     0          
N7       N      0.955180000000     0.184725000000     0.205240000000     0          
N8       N      0.930240000000     0.126450000000     0.135485000000     0          
O1       O      0.858040000000     0.291000000000     0.233175000000     0          
O2       O      0.835720000000     0.241160000000     0.210420000000     0          
O3       O      0.948240000000     0.263850000000     0.221465000000     0          
O4       O      0.970980000000     0.309150000000     0.248575000000     0          
O5       O      0.863080000000     0.347110000000     0.097415000000     0          
O6       O      0.997480000000     0.405950000000     0.130940000000     0          
O7       O      0.941960000000     0.459000000000     0.483175000000     0          
O8       O      0.964280000000     0.008840000000     0.460420000000     0          
O9       O      0.851760000000     0.486150000000     0.471465000000     0          
O10      O      0.829020000000     0.440850000000     0.498575000000     0          
O11      O      0.936920000000     0.402890000000     0.347415000000     0          
O12      O      0.802520000000     0.344050000000     0.380940000000     0          
O13      O      0.941960000000     0.209000000000     0.266825000000     0          
O14      O      0.964280000000     0.258840000000     0.289580000000     0          
O15      O      0.851760000000     0.236150000000     0.278535000000     0          
O16      O      0.829020000000     0.190850000000     0.251425000000     0          
O17      O      0.936920000000     0.152890000000     0.402585000000     0          
O18      O      0.802520000000     0.094050000000     0.369060000000     0          
O19      O      0.858040000000     0.041000000000     0.016825000000     0          
O20      O      0.835720000000     0.491160000000     0.039580000000     0          
O21      O      0.948240000000     0.013850000000     0.028535000000     0          
O22      O      0.970980000000     0.059150000000     0.001425000000     0          
O23      O      0.863080000000     0.097110000000     0.152585000000     0          
O24      O      0.997480000000     0.155950000000     0.119060000000     0          
Zn1      Zn     0.820600000000     0.280125000000     0.766660000000     0          
Zn2      Zn     0.979400000000     0.469875000000     0.516660000000     0          
Zn3      Zn     0.979400000000     0.219875000000     0.733340000000     0          
Zn4      Zn     0.820600000000     0.030125000000     0.983340000000     0          
H1       H      0.895060000000     0.455300000000     0.553700000000     0          
H2       H      0.878160000000     0.422650000000     0.592100000000     0          
H3       H      0.997400000000     0.372700000000     0.579150000000     0          
H4       H      0.811680000000     0.407750000000     0.542150000000     0          
H5       H      0.825400000000     0.300400000000     0.628450000000     0          
H6       H      0.814560000000     0.267200000000     0.667400000000     0          
H7       H      0.805900000000     0.353700000000     0.716250000000     0          
H8       H      0.813420000000     0.388050000000     0.677900000000     0          
H9       H      0.904940000000     0.294700000000     0.803700000000     0          
H10      H      0.921840000000     0.327350000000     0.842100000000     0          
H11      H      0.802600000000     0.377300000000     0.829150000000     0          
H12      H      0.988320000000     0.342250000000     0.792150000000     0          
H13      H      0.974600000000     0.449600000000     0.878450000000     0          
H14      H      0.985440000000     0.482800000000     0.917400000000     0          
H15      H      0.994100000000     0.396300000000     0.966250000000     0          
H16      H      0.986580000000     0.361950000000     0.927900000000     0          
H17      H      0.904940000000     0.044700000000     0.946300000000     0          
H18      H      0.921840000000     0.077350000000     0.907900000000     0          
H19      H      0.802600000000     0.127300000000     0.920850000000     0          
H20      H      0.988320000000     0.092250000000     0.957850000000     0          
H21      H      0.974600000000     0.199600000000     0.871550000000     0          
H22      H      0.985440000000     0.232800000000     0.832600000000     0          
H23      H      0.994100000000     0.146300000000     0.783750000000     0          
H24      H      0.986580000000     0.111950000000     0.822100000000     0          
H25      H      0.895060000000     0.205300000000     0.696300000000     0          
H26      H      0.878160000000     0.172650000000     0.657900000000     0          
H27      H      0.997400000000     0.122700000000     0.670850000000     0          
H28      H      0.811680000000     0.157750000000     0.707850000000     0          
H29      H      0.825400000000     0.050400000000     0.621550000000     0          
H30      H      0.814560000000     0.017200000000     0.582600000000     0          
H31      H      0.805900000000     0.103700000000     0.533750000000     0          
H32      H      0.813420000000     0.138050000000     0.572100000000     0          
C1       C      0.916260000000     0.438700000000     0.559305000000     0          
C2       C      0.905980000000     0.419500000000     0.582065000000     0          
C3       C      0.937460000000     0.395550000000     0.589880000000     0          
C4       C      0.976600000000     0.390100000000     0.574545000000     0          
C5       C      0.984240000000     0.410650000000     0.552550000000     0          
C6       C      0.890180000000     0.351100000000     0.616045000000     0          
C7       C      0.884780000000     0.330550000000     0.640850000000     0          
C8       C      0.917740000000     0.336700000000     0.661610000000     0          
C9       C      0.956940000000     0.363400000000     0.659085000000     0          
C10      C      0.964120000000     0.383600000000     0.634405000000     0          
C11      C      0.846940000000     0.304750000000     0.642795000000     0          
C12      C      0.840680000000     0.285000000000     0.666050000000     0          
C13      C      0.871460000000     0.290650000000     0.687140000000     0          
C14      C      0.912240000000     0.316100000000     0.685130000000     0          
C15      C      0.947700000000     0.322000000000     0.704990000000     0          
C16      C      0.983700000000     0.349000000000     0.702255000000     0          
C17      C      0.988220000000     0.369550000000     0.679355000000     0          
C18      C      0.855040000000     0.272400000000     0.712415000000     0          
C19      C      0.954880000000     0.296450000000     0.727305000000     0          
C20      C      0.883740000000     0.311300000000     0.809305000000     0          
C21      C      0.894020000000     0.330500000000     0.832065000000     0          
C22      C      0.862540000000     0.354450000000     0.839880000000     0          
C23      C      0.823400000000     0.359900000000     0.824545000000     0          
C24      C      0.815760000000     0.339350000000     0.802550000000     0          
C25      C      0.909820000000     0.398900000000     0.866045000000     0          
C26      C      0.915220000000     0.419450000000     0.890850000000     0          
C27      C      0.882260000000     0.413300000000     0.911610000000     0          
C28      C      0.843060000000     0.386600000000     0.909085000000     0          
C29      C      0.835880000000     0.366400000000     0.884405000000     0          
C30      C      0.953060000000     0.445250000000     0.892795000000     0          
C31      C      0.959320000000     0.465000000000     0.916050000000     0          
C32      C      0.928540000000     0.459350000000     0.937140000000     0          
C33      C      0.887760000000     0.433900000000     0.935130000000     0          
C34      C      0.852300000000     0.428000000000     0.954990000000     0          
C35      C      0.816300000000     0.401000000000     0.952255000000     0          
C36      C      0.811780000000     0.380450000000     0.929355000000     0          
C37      C      0.944960000000     0.477600000000     0.962415000000     0          
C38      C      0.845120000000     0.453550000000     0.977305000000     0          
C39      C      0.883740000000     0.061300000000     0.940695000000     0          
C40      C      0.894020000000     0.080500000000     0.917935000000     0          
C41      C      0.862540000000     0.104450000000     0.910120000000     0          
C42      C      0.823400000000     0.109900000000     0.925455000000     0          
C43      C      0.815760000000     0.089350000000     0.947450000000     0          
C44      C      0.909820000000     0.148900000000     0.883955000000     0          
C45      C      0.915220000000     0.169450000000     0.859150000000     0          
C46      C      0.882260000000     0.163300000000     0.838390000000     0          
C47      C      0.843060000000     0.136600000000     0.840915000000     0          
C48      C      0.835880000000     0.116400000000     0.865595000000     0          
C49      C      0.953060000000     0.195250000000     0.857205000000     0          
C50      C      0.959320000000     0.215000000000     0.833950000000     0          
C51      C      0.928540000000     0.209350000000     0.812860000000     0          
C52      C      0.887760000000     0.183900000000     0.814870000000     0          
C53      C      0.852300000000     0.178000000000     0.795010000000     0          
C54      C      0.816300000000     0.151000000000     0.797745000000     0          
C55      C      0.811780000000     0.130450000000     0.820645000000     0          
C56      C      0.944960000000     0.227600000000     0.787585000000     0          
C57      C      0.845120000000     0.203550000000     0.772695000000     0          
C58      C      0.916260000000     0.188700000000     0.690695000000     0          
C59      C      0.905980000000     0.169500000000     0.667935000000     0          
C60      C      0.937460000000     0.145550000000     0.660120000000     0          
C61      C      0.976600000000     0.140100000000     0.675455000000     0          
C62      C      0.984240000000     0.160650000000     0.697450000000     0          
C63      C      0.890180000000     0.101100000000     0.633955000000     0          
C64      C      0.884780000000     0.080550000000     0.609150000000     0          
C65      C      0.917740000000     0.086700000000     0.588390000000     0          
C66      C      0.956940000000     0.113400000000     0.590915000000     0          
C67      C      0.964120000000     0.133600000000     0.615595000000     0          
C68      C      0.846940000000     0.054750000000     0.607205000000     0          
C69      C      0.840680000000     0.035000000000     0.583950000000     0          
C70      C      0.871460000000     0.040650000000     0.562860000000     0          
C71      C      0.912240000000     0.066100000000     0.564870000000     0          
C72      C      0.947700000000     0.072000000000     0.545010000000     0          
C73      C      0.983700000000     0.099000000000     0.547745000000     0          
C74      C      0.988220000000     0.119550000000     0.570645000000     0          
C75      C      0.855040000000     0.022400000000     0.537585000000     0          
C76      C      0.954880000000     0.046450000000     0.522695000000     0          
N1       N      0.955180000000     0.434725000000     0.544760000000     0          
N2       N      0.930240000000     0.376450000000     0.614515000000     0          
N3       N      0.844820000000     0.315275000000     0.794760000000     0          
N4       N      0.869760000000     0.373550000000     0.864515000000     0          
N5       N      0.844820000000     0.065275000000     0.955240000000     0          
N6       N      0.869760000000     0.123550000000     0.885485000000     0          
N7       N      0.955180000000     0.184725000000     0.705240000000     0          
N8       N      0.930240000000     0.126450000000     0.635485000000     0          
O1       O      0.858040000000     0.291000000000     0.733175000000     0          
O2       O      0.835720000000     0.241160000000     0.710420000000     0          
O3       O      0.948240000000     0.263850000000     0.721465000000     0          
O4       O      0.970980000000     0.309150000000     0.748575000000     0          
O5       O      0.863080000000     0.347110000000     0.597415000000     0          
O6       O      0.997480000000     0.405950000000     0.630940000000     0          
O7       O      0.941960000000     0.459000000000     0.983175000000     0          
O8       O      0.964280000000     0.008840000000     0.960420000000     0          
O9       O      0.851760000000     0.486150000000     0.971465000000     0          
O10      O      0.829020000000     0.440850000000     0.998575000000     0          
O11      O      0.936920000000     0.402890000000     0.847415000000     0          
O12      O      0.802520000000     0.344050000000     0.880940000000     0          
O13      O      0.941960000000     0.209000000000     0.766825000000     0          
O14      O      0.964280000000     0.258840000000     0.789580000000     0          
O15      O      0.851760000000     0.236150000000     0.778535000000     0          
O16      O      0.829020000000     0.190850000000     0.751425000000     0          
O17      O      0.936920000000     0.152890000000     0.902585000000     0          
O18      O      0.802520000000     0.094050000000     0.869060000000     0          
O19      O      0.858040000000     0.041000000000     0.516825000000     0          
O20      O      0.835720000000     0.491160000000     0.539580000000     0          
O21      O      0.948240000000     0.013850000000     0.528535000000     0          
O22      O      0.970980000000     0.059150000000     0.501425000000     0          
O23      O      0.863080000000     0.097110000000     0.652585000000     0          
O24      O      0.997480000000     0.155950000000     0.619060000000     0          
Zn1      Zn     0.820600000000     0.780125000000     0.266660000000     0          
Zn2      Zn     0.979400000000     0.969875000000     0.016660000000     0          
Zn3      Zn     0.979400000000     0.719875000000     0.233340000000     0          
Zn4      Zn     0.820600000000     0.530125000000     0.483340000000     0          
H1       H      0.895060000000     0.955300000000     0.053700000000     0          
H2       H      0.878160000000     0.922650000000     0.092100000000     0          
H3       H      0.997400000000     0.872700000000     0.079150000000     0          
H4       H      0.811680000000     0.907750000000     0.042150000000     0          
H5       H      0.825400000000     0.800400000000     0.128450000000     0          
H6       H      0.814560000000     0.767200000000     0.167400000000     0          
H7       H      0.805900000000     0.853700000000     0.216250000000     0          
H8       H      0.813420000000     0.888050000000     0.177900000000     0          
H9       H      0.904940000000     0.794700000000     0.303700000000     0          
H10      H      0.921840000000     0.827350000000     0.342100000000     0          
H11      H      0.802600000000     0.877300000000     0.329150000000     0          
H12      H      0.988320000000     0.842250000000     0.292150000000     0          
H13      H      0.974600000000     0.949600000000     0.378450000000     0          
H14      H      0.985440000000     0.982800000000     0.417400000000     0          
H15      H      0.994100000000     0.896300000000     0.466250000000     0          
H16      H      0.986580000000     0.861950000000     0.427900000000     0          
H17      H      0.904940000000     0.544700000000     0.446300000000     0          
H18      H      0.921840000000     0.577350000000     0.407900000000     0          
H19      H      0.802600000000     0.627300000000     0.420850000000     0          
H20      H      0.988320000000     0.592250000000     0.457850000000     0          
H21      H      0.974600000000     0.699600000000     0.371550000000     0          
H22      H      0.985440000000     0.732800000000     0.332600000000     0          
H23      H      0.994100000000     0.646300000000     0.283750000000     0          
H24      H      0.986580000000     0.611950000000     0.322100000000     0          
H25      H      0.895060000000     0.705300000000     0.196300000000     0          
H26      H      0.878160000000     0.672650000000     0.157900000000     0          
H27      H      0.997400000000     0.622700000000     0.170850000000     0          
H28      H      0.811680000000     0.657750000000     0.207850000000     0          
H29      H      0.825400000000     0.550400000000     0.121550000000     0          
H30      H      0.814560000000     0.517200000000     0.082600000000     0          
H31      H      0.805900000000     0.603700000000     0.033750000000     0          
H32      H      0.813420000000     0.638050000000     0.072100000000     0          
C1       C      0.916260000000     0.938700000000     0.059305000000     0          
C2       C      0.905980000000     0.919500000000     0.082065000000     0          
C3       C      0.937460000000     0.895550000000     0.089880000000     0          
C4       C      0.976600000000     0.890100000000     0.074545000000     0          
C5       C      0.984240000000     0.910650000000     0.052550000000     0          
C6       C      0.890180000000     0.851100000000     0.116045000000     0          
C7       C      0.884780000000     0.830550000000     0.140850000000     0          
C8       C      0.917740000000     0.836700000000     0.161610000000     0          
C9       C      0.956940000000     0.863400000000     0.159085000000     0          
C10      C      0.964120000000     0.883600000000     0.134405000000     0          
C11      C      0.846940000000     0.804750000000     0.142795000000     0          
C12      C      0.840680000000     0.785000000000     0.166050000000     0          
C13      C      0.871460000000     0.790650000000     0.187140000000     0          
C14      C      0.912240000000     0.816100000000     0.185130000000     0          
C15      C      0.947700000000     0.822000000000     0.204990000000     0          
C16      C      0.983700000000     0.849000000000     0.202255000000     0          
C17      C      0.988220000000     0.869550000000     0.179355000000     0          
C18      C      0.855040000000     0.772400000000     0.212415000000     0          
C19      C      0.954880000000     0.796450000000     0.227305000000     0          
C20      C      0.883740000000     0.811300000000     0.309305000000     0          
C21      C      0.894020000000     0.830500000000     0.332065000000     0          
C22      C      0.862540000000     0.854450000000     0.339880000000     0          
C23      C      0.823400000000     0.859900000000     0.324545000000     0          
C24      C      0.815760000000     0.839350000000     0.302550000000     0          
C25      C      0.909820000000     0.898900000000     0.366045000000     0          
C26      C      0.915220000000     0.919450000000     0.390850000000     0          
C27      C      0.882260000000     0.913300000000     0.411610000000     0          
C28      C      0.843060000000     0.886600000000     0.409085000000     0          
C29      C      0.835880000000     0.866400000000     0.384405000000     0          
C30      C      0.953060000000     0.945250000000     0.392795000000     0          
C31      C      0.959320000000     0.965000000000     0.416050000000     0          
C32      C      0.928540000000     0.959350000000     0.437140000000     0          
C33      C      0.887760000000     0.933900000000     0.435130000000     0          
C34      C      0.852300000000     0.928000000000     0.454990000000     0          
C35      C      0.816300000000     0.901000000000     0.452255000000     0          
C36      C      0.811780000000     0.880450000000     0.429355000000     0          
C37      C      0.944960000000     0.977600000000     0.462415000000     0          
C38      C      0.845120000000     0.953550000000     0.477305000000     0          
C39      C      0.883740000000     0.561300000000     0.440695000000     0          
C40      C      0.894020000000     0.580500000000     0.417935000000     0          
C41      C      0.862540000000     0.604450000000     0.410120000000     0          
C42      C      0.823400000000     0.609900000000     0.425455000000     0          
C43      C      0.815760000000     0.589350000000     0.447450000000     0          
C44      C      0.909820000000     0.648900000000     0.383955000000     0          
C45      C      0.915220000000     0.669450000000     0.359150000000     0          
C46      C      0.882260000000     0.663300000000     0.338390000000     0          
C47      C      0.843060000000     0.636600000000     0.340915000000     0          
C48      C      0.835880000000     0.616400000000     0.365595000000     0          
C49      C      0.953060000000     0.695250000000     0.357205000000     0          
C50      C      0.959320000000     0.715000000000     0.333950000000     0          
C51      C      0.928540000000     0.709350000000     0.312860000000     0          
C52      C      0.887760000000     0.683900000000     0.314870000000     0          
C53      C      0.852300000000     0.678000000000     0.295010000000     0          
C54      C      0.816300000000     0.651000000000     0.297745000000     0          
C55      C      0.811780000000     0.630450000000     0.320645000000     0          
C56      C      0.944960000000     0.727600000000     0.287585000000     0          
C57      C      0.845120000000     0.703550000000     0.272695000000     0          
C58      C      0.916260000000     0.688700000000     0.190695000000     0          
C59      C      0.905980000000     0.669500000000     0.167935000000     0          
C60      C      0.937460000000     0.645550000000     0.160120000000     0          
C61      C      0.976600000000     0.640100000000     0.175455000000     0          
C62      C      0.984240000000     0.660650000000     0.197450000000     0          
C63      C      0.890180000000     0.601100000000     0.133955000000     0          
C64      C      0.884780000000     0.580550000000     0.109150000000     0          
C65      C      0.917740000000     0.586700000000     0.088390000000     0          
C66      C      0.956940000000     0.613400000000     0.090915000000     0          
C67      C      0.964120000000     0.633600000000     0.115595000000     0          
C68      C      0.846940000000     0.554750000000     0.107205000000     0          
C69      C      0.840680000000     0.535000000000     0.083950000000     0          
C70      C      0.871460000000     0.540650000000     0.062860000000     0          
C71      C      0.912240000000     0.566100000000     0.064870000000     0          
C72      C      0.947700000000     0.572000000000     0.045010000000     0          
C73      C      0.983700000000     0.599000000000     0.047745000000     0          
C74      C      0.988220000000     0.619550000000     0.070645000000     0          
C75      C      0.855040000000     0.522400000000     0.037585000000     0          
C76      C      0.954880000000     0.546450000000     0.022695000000     0          
N1       N      0.955180000000     0.934725000000     0.044760000000     0          
N2       N      0.930240000000     0.876450000000     0.114515000000     0          
N3       N      0.844820000000     0.815275000000     0.294760000000     0          
N4       N      0.869760000000     0.873550000000     0.364515000000     0          
N5       N      0.844820000000     0.565275000000     0.455240000000     0          
N6       N      0.869760000000     0.623550000000     0.385485000000     0          
N7       N      0.955180000000     0.684725000000     0.205240000000     0          
N8       N      0.930240000000     0.626450000000     0.135485000000     0          
O1       O      0.858040000000     0.791000000000     0.233175000000     0          
O2       O      0.835720000000     0.741160000000     0.210420000000     0          
O3       O      0.948240000000     0.763850000000     0.221465000000     0          
O4       O      0.970980000000     0.809150000000     0.248575000000     0          
O5       O      0.863080000000     0.847110000000     0.097415000000     0          
O6       O      0.997480000000     0.905950000000     0.130940000000     0          
O7       O      0.941960000000     0.959000000000     0.483175000000     0          
O8       O      0.964280000000     0.508840000000     0.460420000000     0          
O9       O      0.851760000000     0.986150000000     0.471465000000     0          
O10      O      0.829020000000     0.940850000000     0.498575000000     0          
O11      O      0.936920000000     0.902890000000     0.347415000000     0          
O12      O      0.802520000000     0.844050000000     0.380940000000     0          
O13      O      0.941960000000     0.709000000000     0.266825000000     0          
O14      O      0.964280000000     0.758840000000     0.289580000000     0          
O15      O      0.851760000000     0.736150000000     0.278535000000     0          
O16      O      0.829020000000     0.690850000000     0.251425000000     0          
O17      O      0.936920000000     0.652890000000     0.402585000000     0          
O18      O      0.802520000000     0.594050000000     0.369060000000     0          
O19      O      0.858040000000     0.541000000000     0.016825000000     0          
O20      O      0.835720000000     0.991160000000     0.039580000000     0          
O21      O      0.948240000000     0.513850000000     0.028535000000     0          
O22      O      0.970980000000     0.559150000000     0.001425000000     0          
O23      O      0.863080000000     0.597110000000     0.152585000000     0          
O24      O      0.997480000000     0.655950000000     0.119060000000     0          
Zn1      Zn     0.820600000000     0.780125000000     0.766660000000     0          
Zn2      Zn     0.979400000000     0.969875000000     0.516660000000     0          
Zn3      Zn     0.979400000000     0.719875000000     0.733340000000     0          
Zn4      Zn     0.820600000000     0.530125000000     0.983340000000     0          
H1       H      0.895060000000     0.955300000000     0.553700000000     0          
H2       H      0.878160000000     0.922650000000     0.592100000000     0          
H3       H      0.997400000000     0.872700000000     0.579150000000     0          
H4       H      0.811680000000     0.907750000000     0.542150000000     0          
H5       H      0.825400000000     0.800400000000     0.628450000000     0          
H6       H      0.814560000000     0.767200000000     0.667400000000     0          
H7       H      0.805900000000     0.853700000000     0.716250000000     0          
H8       H      0.813420000000     0.888050000000     0.677900000000     0          
H9       H      0.904940000000     0.794700000000     0.803700000000     0          
H10      H      0.921840000000     0.827350000000     0.842100000000     0          
H11      H      0.802600000000     0.877300000000     0.829150000000     0          
H12      H      0.988320000000     0.842250000000     0.792150000000     0          
H13      H      0.974600000000     0.949600000000     0.878450000000     0          
H14      H      0.985440000000     0.982800000000     0.917400000000     0          
H15      H      0.994100000000     0.896300000000     0.966250000000     0          
H16      H      0.986580000000     0.861950000000     0.927900000000     0          
H17      H      0.904940000000     0.544700000000     0.946300000000     0          
H18      H      0.921840000000     0.577350000000     0.907900000000     0          
H19      H      0.802600000000     0.627300000000     0.920850000000     0          
H20      H      0.988320000000     0.592250000000     0.957850000000     0          
H21      H      0.974600000000     0.699600000000     0.871550000000     0          
H22      H      0.985440000000     0.732800000000     0.832600000000     0          
H23      H      0.994100000000     0.646300000000     0.783750000000     0          
H24      H      0.986580000000     0.611950000000     0.822100000000     0          
H25      H      0.895060000000     0.705300000000     0.696300000000     0          
H26      H      0.878160000000     0.672650000000     0.657900000000     0          
H27      H      0.997400000000     0.622700000000     0.670850000000     0          
H28      H      0.811680000000     0.657750000000     0.707850000000     0          
H29      H      0.825400000000     0.550400000000     0.621550000000     0          
H30      H      0.814560000000     0.517200000000     0.582600000000     0          
H31      H      0.805900000000     0.603700000000     0.533750000000     0          
H32      H      0.813420000000     0.638050000000     0.572100000000     0          
C1       C      0.916260000000     0.938700000000     0.559305000000     0          
C2       C      0.905980000000     0.919500000000     0.582065000000     0          
C3       C      0.937460000000     0.895550000000     0.589880000000     0          
C4       C      0.976600000000     0.890100000000     0.574545000000     0          
C5       C      0.984240000000     0.910650000000     0.552550000000     0          
C6       C      0.890180000000     0.851100000000     0.616045000000     0          
C7       C      0.884780000000     0.830550000000     0.640850000000     0          
C8       C      0.917740000000     0.836700000000     0.661610000000     0          
C9       C      0.956940000000     0.863400000000     0.659085000000     0          
C10      C      0.964120000000     0.883600000000     0.634405000000     0          
C11      C      0.846940000000     0.804750000000     0.642795000000     0          
C12      C      0.840680000000     0.785000000000     0.666050000000     0          
C13      C      0.871460000000     0.790650000000     0.687140000000     0          
C14      C      0.912240000000     0.816100000000     0.685130000000     0          
C15      C      0.947700000000     0.822000000000     0.704990000000     0          
C16      C      0.983700000000     0.849000000000     0.702255000000     0          
C17      C      0.988220000000     0.869550000000     0.679355000000     0          
C18      C      0.855040000000     0.772400000000     0.712415000000     0          
C19      C      0.954880000000     0.796450000000     0.727305000000     0          
C20      C      0.883740000000     0.811300000000     0.809305000000     0          
C21      C      0.894020000000     0.830500000000     0.832065000000     0          
C22      C      0.862540000000     0.854450000000     0.839880000000     0          
C23      C      0.823400000000     0.859900000000     0.824545000000     0          
C24      C      0.815760000000     0.839350000000     0.802550000000     0          
C25      C      0.909820000000     0.898900000000     0.866045000000     0          
C26      C      0.915220000000     0.919450000000     0.890850000000     0          
C27      C      0.882260000000     0.913300000000     0.911610000000     0          
C28      C      0.843060000000     0.886600000000     0.909085000000     0          
C29      C      0.835880000000     0.866400000000     0.884405000000     0          
C30      C      0.953060000000     0.945250000000     0.892795000000     0          
C31      C      0.959320000000     0.965000000000     0.916050000000     0          
C32      C      0.928540000000     0.959350000000     0.937140000000     0          
C33      C      0.887760000000     0.933900000000     0.935130000000     0          
C34      C      0.852300000000     0.928000000000     0.954990000000     0          
C35      C      0.816300000000     0.901000000000     0.952255000000     0          
C36      C      0.811780000000     0.880450000000     0.929355000000     0          
C37      C      0.944960000000     0.977600000000     0.962415000000     0          
C38      C      0.845120000000     0.953550000000     0.977305000000     0          
C39      C      0.883740000000     0.561300000000     0.940695000000     0          
C40      C      0.894020000000     0.580500000000     0.917935000000     0          
C41      C      0.862540000000     0.604450000000     0.910120000000     0          
C42      C      0.823400000000     0.609900000000     0.925455000000     0          
C43      C      0.815760000000     0.589350000000     0.947450000000     0          
C44      C      0.909820000000     0.648900000000     0.883955000000     0          
C45      C      0.915220000000     0.669450000000     0.859150000000     0          
C46      C      0.882260000000     0.663300000000     0.838390000000     0          
C47      C      0.843060000000     0.636600000000     0.840915000000     0          
C48      C      0.835880000000     0.616400000000     0.865595000000     0          
C49      C      0.953060000000     0.695250000000     0.857205000000     0          
C50      C      0.959320000000     0.715000000000     0.833950000000     0          
C51      C      0.928540000000     0.709350000000     0.812860000000     0          
C52      C      0.887760000000     0.683900000000     0.814870000000     0          
C53      C      0.852300000000     0.678000000000     0.795010000000     0          
C54      C      0.816300000000     0.651000000000     0.797745000000     0          
C55      C      0.811780000000     0.630450000000     0.820645000000     0          
C56      C      0.944960000000     0.727600000000     0.787585000000     0          
C57      C      0.845120000000     0.703550000000     0.772695000000     0          
C58      C      0.916260000000     0.688700000000     0.690695000000     0          
C59      C      0.905980000000     0.669500000000     0.667935000000     0          
C60      C      0.937460000000     0.645550000000     0.660120000000     0          
C61      C      0.976600000000     0.640100000000     0.675455000000     0          
C62      C      0.984240000000     0.660650000000     0.697450000000     0          
C63      C      0.890180000000     0.601100000000     0.633955000000     0          
C64      C      0.884780000000     0.580550000000     0.609150000000     0          
C65      C      0.917740000000     0.586700000000     0.588390000000     0          
C66      C      0.956940000000     0.613400000000     0.590915000000     0          
C67      C      0.964120000000     0.633600000000     0.615595000000     0          
C68      C      0.846940000000     0.554750000000     0.607205000000     0          
C69      C      0.840680000000     0.535000000000     0.583950000000     0          
C70      C      0.871460000000     0.540650000000     0.562860000000     0          
C71      C      0.912240000000     0.566100000000     0.564870000000     0          
C72      C      0.947700000000     0.572000000000     0.545010000000     0          
C73      C      0.983700000000     0.599000000000     0.547745000000     0          
C74      C      0.988220000000     0.619550000000     0.570645000000     0          
C75      C      0.855040000000     0.522400000000     0.537585000000     0          
C76      C      0.954880000000     0.546450000000     0.522695000000     0          
N1       N      0.955180000000     0.934725000000     0.544760000000     0          
N2       N      0.930240000000     0.876450000000     0.614515000000     0          
N3       N      0.844820000000     0.815275000000     0.794760000000     0          
N4       N      0.869760000000     0.873550000000     0.864515000000     0          
N5       N      0.844820000000     0.565275000000     0.955240000000     0          
N6       N      0.869760000000     0.623550000000     0.885485000000     0          
N7       N      0.955180000000     0.684725000000     0.705240000000     0          
N8       N      0.930240000000     0.626450000000     0.635485000000     0          
O1       O      0.858040000000     0.791000000000     0.733175000000     0          
O2       O      0.835720000000     0.741160000000     0.710420000000     0          
O3       O      0.948240000000     0.763850000000     0.721465000000     0          
O4       O      0.970980000000     0.809150000000     0.748575000000     0          
O5       O      0.863080000000     0.847110000000     0.597415000000     0          
O6       O      0.997480000000     0.905950000000     0.630940000000     0          
O7       O      0.941960000000     0.959000000000     0.983175000000     0          
O8       O      0.964280000000     0.508840000000     0.960420000000     0          
O9       O      0.851760000000     0.986150000000     0.971465000000     0          
O10      O      0.829020000000     0.940850000000     0.998575000000     0          
O11      O      0.936920000000     0.902890000000     0.847415000000     0          
O12      O      0.802520000000     0.844050000000     0.880940000000     0          
O13      O      0.941960000000     0.709000000000     0.766825000000     0          
O14      O      0.964280000000     0.758840000000     0.789580000000     0          
O15      O      0.851760000000     0.736150000000     0.778535000000     0          
O16      O      0.829020000000     0.690850000000     0.751425000000     0          
O17      O      0.936920000000     0.652890000000     0.902585000000     0          
O18      O      0.802520000000     0.594050000000     0.869060000000     0          
O19      O      0.858040000000     0.541000000000     0.516825000000     0          
O20      O      0.835720000000     0.991160000000     0.539580000000     0          
O21      O      0.948240000000     0.513850000000     0.528535000000     0          
O22      O      0.970980000000     0.559150000000     0.501425000000     0          
O23      O      0.863080000000     0.597110000000     0.652585000000     0          
O24      O      0.997480000000     0.655950000000     0.619060000000     0          


