data_[CoreMOF]ZOFZUR_clean

_audit_creation_method RASPA-1.0
_audit_creation_date 2025-1-26
_audit_author_name ''

_cell_length_a    38.9881
_cell_length_b    38.9881
_cell_length_c    22.2962
_cell_angle_alpha 90
_cell_angle_beta  90
_cell_angle_gamma 120
_cell_volume      58702.4

_symmetry_cell_setting          triclinic
_symmetry_space_group_name_Hall 'P 1'
_symmetry_space_group_name_H-M  'P 1'
_symmetry_Int_Tables_number     1

_symmetry_equiv_pos_as_xyz 'x,y,z'

loop_
_atom_site_label
_atom_site_type_symbol
_atom_site_fract_x
_atom_site_fract_y
_atom_site_fract_z
_atom_site_charge
Mn1      Mn     0.663920000000     0.738240000000     0.046180000000    -0.0776054  
Mn1      Mn     0.663920000000     0.738240000000     0.546180000000    -0.0776054  
Mn2      Mn     0.580010000000     0.655630000000     0.016890000000    -0.0575075  
Mn2      Mn     0.580010000000     0.655630000000     0.516890000000    -0.0575075  
O1       O      0.394610000000     0.919900000000     0.498810000000     0.0655242  
O1       O      0.394610000000     0.919900000000     0.998810000000     0.0655242  
O2       O      0.373480000000     0.897570000000     0.044850000000     0.306319   
O2       O      0.373480000000     0.897570000000     0.544850000000     0.306319   
O3       O      0.683420000000     0.946990000000     0.457385000000     0.321174   
O3       O      0.683420000000     0.946990000000     0.957385000000     0.321174   
O4       O      0.716820000000     0.008450000000     0.472800000000     0.375917   
O4       O      0.716820000000     0.008450000000     0.972800000000     0.375917   
O5       O      0.667820000000     0.047180000000     0.064715000000    -0.0779174  
O5       O      0.667820000000     0.047180000000     0.564715000000    -0.0779174  
O6       O      0.610380000000     0.002120000000     0.083945000000     0.730805   
O6       O      0.610380000000     0.002120000000     0.583945000000     0.730805   
O7       O      0.571840000000     0.704280000000     0.005190000000     0.930921   
O7       O      0.571840000000     0.704280000000     0.505190000000     0.930921   
O8       O      0.612680000000     0.742570000000     0.041825000000    -0.324595   
O8       O      0.612680000000     0.742570000000     0.541825000000    -0.324595   
C1       C      0.588460000000     0.735160000000     0.021335000000    -0.323874   
C1       C      0.588460000000     0.735160000000     0.521335000000    -0.323874   
C2       C      0.577540000000     0.766140000000     0.013165000000    -0.323741   
C2       C      0.577540000000     0.766140000000     0.513165000000    -0.323741   
C3       C      0.555820000000     0.763160000000     0.486820000000    -0.413456   
C3       C      0.555820000000     0.763160000000     0.986820000000    -0.413456   
H1       H      0.547800000000     0.741900000000     0.473750000000    -0.384612   
H1       H      0.547800000000     0.741900000000     0.973750000000    -0.384612   
C4       C      0.547000000000     0.792710000000     0.481170000000    -0.401973   
C4       C      0.547000000000     0.792710000000     0.981170000000    -0.401973   
H2       H      0.532900000000     0.791100000000     0.463900000000    -0.375398   
H2       H      0.532900000000     0.791100000000     0.963900000000    -0.375398   
C5       C      0.558180000000     0.824280000000     0.499925000000    -0.404163   
C5       C      0.558180000000     0.824280000000     0.999925000000    -0.404163   
C6       C      0.579270000000     0.826580000000     0.024685000000     0.3942     
C6       C      0.579270000000     0.826580000000     0.524685000000     0.3942     
H3       H      0.587000000000     0.847900000000     0.037600000000    -0.168169   
H3       H      0.587000000000     0.847900000000     0.537600000000    -0.168169   
C7       C      0.589840000000     0.798370000000     0.031595000000     0.110694   
C7       C      0.589840000000     0.798370000000     0.531595000000     0.110694   
H4       H      0.605100000000     0.801300000000     0.048500000000     0.00571867 
H4       H      0.605100000000     0.801300000000     0.548500000000     0.00571867 
C8       C      0.546600000000     0.855630000000     0.493245000000    -0.210536   
C8       C      0.546600000000     0.855630000000     0.993245000000    -0.210536   
H5       H      0.560500000000     0.869800000000     0.475300000000     0.101246   
H5       H      0.560500000000     0.869800000000     0.975300000000     0.101246   
H6       H      0.518500000000     0.842200000000     0.488850000000     0.172131   
H6       H      0.518500000000     0.842200000000     0.988850000000     0.172131   
C9       C      0.526540000000     0.872680000000     0.039815000000    -0.211548   
C9       C      0.526540000000     0.872680000000     0.539815000000    -0.211548   
H7       H      0.540600000000     0.885500000000     0.058050000000     0.110452   
H7       H      0.540600000000     0.885500000000     0.558050000000     0.110452   
H8       H      0.514800000000     0.844400000000     0.042850000000     0.113607   
H8       H      0.514800000000     0.844400000000     0.542850000000     0.113607   
C10      C      0.493900000000     0.881520000000     0.035955000000    -0.003496   
C10      C      0.493900000000     0.881520000000     0.535955000000    -0.003496   
C11      C      0.466250000000     0.873140000000     0.057320000000    -0.191023   
C11      C      0.466250000000     0.873140000000     0.557320000000    -0.191023   
H9       H      0.468100000000     0.862300000000     0.075400000000     0.0888665  
H9       H      0.468100000000     0.862300000000     0.575400000000     0.0888665  
C12      C      0.435180000000     0.880410000000     0.052890000000     0.0898913  
C12      C      0.435180000000     0.880410000000     0.552890000000     0.0898913  
H10      H      0.416300000000     0.873500000000     0.067900000000    -0.182061   
H10      H      0.416300000000     0.873500000000     0.567900000000    -0.182061   
C13      C      0.431570000000     0.896750000000     0.028055000000     0.0791123  
C13      C      0.431570000000     0.896750000000     0.528055000000     0.0791123  
C14      C      0.458820000000     0.906630000000     0.005250000000     0.0875438  
C14      C      0.458820000000     0.906630000000     0.505250000000     0.0875438  
H11      H      0.456800000000     0.918200000000     0.487550000000     0.149821   
H11      H      0.456800000000     0.918200000000     0.987550000000     0.149821   
C15      C      0.489380000000     0.898570000000     0.009835000000    -0.196022   
C15      C      0.489380000000     0.898570000000     0.509835000000    -0.196022   
H12      H      0.507900000000     0.904900000000     0.494600000000     0.091558   
H12      H      0.507900000000     0.904900000000     0.994600000000     0.091558   
C16      C      0.590750000000     0.920760000000     0.017185000000     0.0905347  
C16      C      0.590750000000     0.920760000000     0.517185000000     0.0905347  
C17      C      0.596720000000     0.949090000000     0.038665000000     0.0132283  
C17      C      0.596720000000     0.949090000000     0.538665000000     0.0132283  
H13      H      0.576700000000     0.943700000000     0.052450000000    -0.128024   
H13      H      0.576700000000     0.943700000000     0.552450000000    -0.128024   
C18      C      0.631220000000     0.984730000000     0.040050000000     0.0762125  
C18      C      0.631220000000     0.984730000000     0.540050000000     0.0762125  
C19      C      0.660930000000     0.993280000000     0.018680000000     0.0159734  
C19      C      0.660930000000     0.993280000000     0.518680000000     0.0159734  
H14      H      0.684200000000     0.017700000000     0.018750000000    -0.175454   
H14      H      0.684200000000     0.017700000000     0.518750000000    -0.175454   
C20      C      0.655110000000     0.965200000000     0.497775000000     0.0976559  
C20      C      0.655110000000     0.965200000000     0.997775000000     0.0976559  
C21      C      0.621030000000     0.929330000000     0.497150000000     0.0571865  
C21      C      0.621030000000     0.929330000000     0.997150000000     0.0571865  
H15      H      0.618200000000     0.910500000000     0.483100000000    -0.0472947  
H15      H      0.618200000000     0.910500000000     0.983100000000    -0.0472947  
C22      C      0.397600000000     0.905370000000     0.024255000000     0.0517737  
C22      C      0.397600000000     0.905370000000     0.524255000000     0.0517737  
C23      C      0.686690000000     0.973740000000     0.474605000000    -0.0905775  
C23      C      0.686690000000     0.973740000000     0.974605000000    -0.0905775  
C24      C      0.636920000000     0.013810000000     0.064725000000     0.0176639  
C24      C      0.636920000000     0.013810000000     0.564725000000     0.0176639  
N1       N      0.554610000000     0.883880000000     0.016495000000     0.0234142  
N1       N      0.554610000000     0.883880000000     0.516495000000     0.0234142  
Mn3      Mn     0.330590000000     0.071570000000     0.212845000000    -0.0776853  
Mn3      Mn     0.330590000000     0.071570000000     0.712845000000    -0.0776853  
Mn4      Mn     0.246670000000     0.988970000000     0.183560000000    -0.0574549  
Mn4      Mn     0.246670000000     0.988970000000     0.683560000000    -0.0574549  
O9       O      0.061280000000     0.253230000000     0.165475000000     0.065509   
O9       O      0.061280000000     0.253230000000     0.665475000000     0.065509   
O10      O      0.040150000000     0.230900000000     0.211515000000     0.30632    
O10      O      0.040150000000     0.230900000000     0.711515000000     0.30632    
O11      O      0.350090000000     0.280320000000     0.124050000000     0.321275   
O11      O      0.350090000000     0.280320000000     0.624050000000     0.321275   
O12      O      0.383490000000     0.341780000000     0.139465000000     0.375866   
O12      O      0.383490000000     0.341780000000     0.639465000000     0.375866   
O13      O      0.334490000000     0.380510000000     0.231380000000    -0.0779105  
O13      O      0.334490000000     0.380510000000     0.731380000000    -0.0779105  
O14      O      0.277050000000     0.335450000000     0.250610000000     0.730777   
O14      O      0.277050000000     0.335450000000     0.750610000000     0.730777   
O15      O      0.238510000000     0.037610000000     0.171855000000     0.930849   
O15      O      0.238510000000     0.037610000000     0.671855000000     0.930849   
O16      O      0.279350000000     0.075900000000     0.208490000000    -0.324685   
O16      O      0.279350000000     0.075900000000     0.708490000000    -0.324685   
C25      C      0.255130000000     0.068490000000     0.188000000000    -0.323914   
C25      C      0.255130000000     0.068490000000     0.688000000000    -0.323914   
C26      C      0.244210000000     0.099470000000     0.179830000000    -0.323733   
C26      C      0.244210000000     0.099470000000     0.679830000000    -0.323733   
C27      C      0.222490000000     0.096490000000     0.153485000000    -0.413382   
C27      C      0.222490000000     0.096490000000     0.653485000000    -0.413382   
H16      H      0.214470000000     0.075230000000     0.140415000000    -0.384675   
H16      H      0.214470000000     0.075230000000     0.640415000000    -0.384675   
C28      C      0.213670000000     0.126040000000     0.147835000000    -0.402048   
C28      C      0.213670000000     0.126040000000     0.647835000000    -0.402048   
H17      H      0.199570000000     0.124430000000     0.130565000000    -0.375324   
H17      H      0.199570000000     0.124430000000     0.630565000000    -0.375324   
C29      C      0.224850000000     0.157610000000     0.166590000000    -0.404118   
C29      C      0.224850000000     0.157610000000     0.666590000000    -0.404118   
C30      C      0.245940000000     0.159910000000     0.191350000000     0.39415    
C30      C      0.245940000000     0.159910000000     0.691350000000     0.39415    
H18      H      0.253670000000     0.181230000000     0.204265000000    -0.168147   
H18      H      0.253670000000     0.181230000000     0.704265000000    -0.168147   
C31      C      0.256510000000     0.131700000000     0.198260000000     0.11068    
C31      C      0.256510000000     0.131700000000     0.698260000000     0.11068    
H19      H      0.271770000000     0.134630000000     0.215165000000     0.00571689 
H19      H      0.271770000000     0.134630000000     0.715165000000     0.00571689 
C32      C      0.213270000000     0.188960000000     0.159910000000    -0.210525   
C32      C      0.213270000000     0.188960000000     0.659910000000    -0.210525   
H20      H      0.227170000000     0.203130000000     0.141965000000     0.101242   
H20      H      0.227170000000     0.203130000000     0.641965000000     0.101242   
H21      H      0.185170000000     0.175530000000     0.155515000000     0.172125   
H21      H      0.185170000000     0.175530000000     0.655515000000     0.172125   
C33      C      0.193210000000     0.206010000000     0.206480000000    -0.211534   
C33      C      0.193210000000     0.206010000000     0.706480000000    -0.211534   
H22      H      0.207270000000     0.218830000000     0.224715000000     0.110451   
H22      H      0.207270000000     0.218830000000     0.724715000000     0.110451   
H23      H      0.181470000000     0.177730000000     0.209515000000     0.113592   
H23      H      0.181470000000     0.177730000000     0.709515000000     0.113592   
C34      C      0.160570000000     0.214850000000     0.202620000000    -0.0034806  
C34      C      0.160570000000     0.214850000000     0.702620000000    -0.0034806  
C35      C      0.132920000000     0.206470000000     0.223985000000    -0.191021   
C35      C      0.132920000000     0.206470000000     0.723985000000    -0.191021   
H24      H      0.134770000000     0.195630000000     0.242065000000     0.0888701  
H24      H      0.134770000000     0.195630000000     0.742065000000     0.0888701  
C36      C      0.101850000000     0.213740000000     0.219555000000     0.0898904  
C36      C      0.101850000000     0.213740000000     0.719555000000     0.0898904  
H25      H      0.082970000000     0.206830000000     0.234565000000    -0.182054   
H25      H      0.082970000000     0.206830000000     0.734565000000    -0.182054   
C37      C      0.098240000000     0.230080000000     0.194720000000     0.0791102  
C37      C      0.098240000000     0.230080000000     0.694720000000     0.0791102  
C38      C      0.125490000000     0.239960000000     0.171915000000     0.0875408  
C38      C      0.125490000000     0.239960000000     0.671915000000     0.0875408  
H26      H      0.123470000000     0.251530000000     0.154215000000     0.149809   
H26      H      0.123470000000     0.251530000000     0.654215000000     0.149809   
C39      C      0.156050000000     0.231900000000     0.176500000000    -0.196004   
C39      C      0.156050000000     0.231900000000     0.676500000000    -0.196004   
H27      H      0.174570000000     0.238230000000     0.161265000000     0.0915529  
H27      H      0.174570000000     0.238230000000     0.661265000000     0.0915529  
C40      C      0.257420000000     0.254090000000     0.183850000000     0.090514   
C40      C      0.257420000000     0.254090000000     0.683850000000     0.090514   
C41      C      0.263390000000     0.282420000000     0.205330000000     0.0132424  
C41      C      0.263390000000     0.282420000000     0.705330000000     0.0132424  
H28      H      0.243370000000     0.277030000000     0.219115000000    -0.127996   
H28      H      0.243370000000     0.277030000000     0.719115000000    -0.127996   
C42      C      0.297890000000     0.318060000000     0.206715000000     0.0761963  
C42      C      0.297890000000     0.318060000000     0.706715000000     0.0761963  
C43      C      0.327600000000     0.326610000000     0.185345000000     0.0159843  
C43      C      0.327600000000     0.326610000000     0.685345000000     0.0159843  
H29      H      0.350870000000     0.351030000000     0.185415000000    -0.175439   
H29      H      0.350870000000     0.351030000000     0.685415000000    -0.175439   
C44      C      0.321780000000     0.298530000000     0.164440000000     0.0976531  
C44      C      0.321780000000     0.298530000000     0.664440000000     0.0976531  
C45      C      0.287700000000     0.262660000000     0.163815000000     0.0571643  
C45      C      0.287700000000     0.262660000000     0.663815000000     0.0571643  
H30      H      0.284870000000     0.243830000000     0.149765000000    -0.0472389  
H30      H      0.284870000000     0.243830000000     0.649765000000    -0.0472389  
C46      C      0.064270000000     0.238700000000     0.190920000000     0.0517544  
C46      C      0.064270000000     0.238700000000     0.690920000000     0.0517544  
C47      C      0.353360000000     0.307070000000     0.141270000000    -0.0906598  
C47      C      0.353360000000     0.307070000000     0.641270000000    -0.0906598  
C48      C      0.303590000000     0.347140000000     0.231390000000     0.0178245  
C48      C      0.303590000000     0.347140000000     0.731390000000     0.0178245  
N2       N      0.221280000000     0.217210000000     0.183160000000     0.0233298  
N2       N      0.221280000000     0.217210000000     0.683160000000     0.0233298  
Mn5      Mn     0.997250000000     0.404900000000     0.379515000000    -0.0776838  
Mn5      Mn     0.997250000000     0.404900000000     0.879515000000    -0.0776838  
Mn6      Mn     0.913340000000     0.322300000000     0.350225000000    -0.0574324  
Mn6      Mn     0.913340000000     0.322300000000     0.850225000000    -0.0574324  
O17      O      0.727940000000     0.586570000000     0.332145000000     0.0655148  
O17      O      0.727940000000     0.586570000000     0.832145000000     0.0655148  
O18      O      0.706810000000     0.564240000000     0.378185000000     0.306306   
O18      O      0.706810000000     0.564240000000     0.878185000000     0.306306   
O19      O      0.016750000000     0.613660000000     0.290720000000     0.321237   
O19      O      0.016750000000     0.613660000000     0.790720000000     0.321237   
O20      O      0.050150000000     0.675120000000     0.306135000000     0.376006   
O20      O      0.050150000000     0.675120000000     0.806135000000     0.376006   
O21      O      0.001150000000     0.713850000000     0.398050000000    -0.0779075  
O21      O      0.001150000000     0.713850000000     0.898050000000    -0.0779075  
O22      O      0.943710000000     0.668790000000     0.417280000000     0.730733   
O22      O      0.943710000000     0.668790000000     0.917280000000     0.730733   
O23      O      0.905170000000     0.370950000000     0.338525000000     0.930917   
O23      O      0.905170000000     0.370950000000     0.838525000000     0.930917   
O24      O      0.946010000000     0.409240000000     0.375160000000    -0.324642   
O24      O      0.946010000000     0.409240000000     0.875160000000    -0.324642   
C49      C      0.921790000000     0.401830000000     0.354670000000    -0.323887   
C49      C      0.921790000000     0.401830000000     0.854670000000    -0.323887   
C50      C      0.910870000000     0.432810000000     0.346500000000    -0.32369    
C50      C      0.910870000000     0.432810000000     0.846500000000    -0.32369    
C51      C      0.889150000000     0.429830000000     0.320155000000    -0.413343   
C51      C      0.889150000000     0.429830000000     0.820155000000    -0.413343   
H31      H      0.881130000000     0.408570000000     0.307085000000    -0.384612   
H31      H      0.881130000000     0.408570000000     0.807085000000    -0.384612   
C52      C      0.880330000000     0.459380000000     0.314505000000    -0.401984   
C52      C      0.880330000000     0.459380000000     0.814505000000    -0.401984   
H32      H      0.866230000000     0.457770000000     0.297235000000    -0.375373   
H32      H      0.866230000000     0.457770000000     0.797235000000    -0.375373   
C53      C      0.891510000000     0.490950000000     0.333260000000    -0.404157   
C53      C      0.891510000000     0.490950000000     0.833260000000    -0.404157   
C54      C      0.912600000000     0.493250000000     0.358020000000     0.394174   
C54      C      0.912600000000     0.493250000000     0.858020000000     0.394174   
H33      H      0.920330000000     0.514570000000     0.370935000000    -0.168134   
H33      H      0.920330000000     0.514570000000     0.870935000000    -0.168134   
C55      C      0.923170000000     0.465040000000     0.364930000000     0.110692   
C55      C      0.923170000000     0.465040000000     0.864930000000     0.110692   
H34      H      0.938430000000     0.467970000000     0.381835000000     0.00570763 
H34      H      0.938430000000     0.467970000000     0.881835000000     0.00570763 
C56      C      0.879930000000     0.522300000000     0.326580000000    -0.210538   
C56      C      0.879930000000     0.522300000000     0.826580000000    -0.210538   
H35      H      0.893830000000     0.536470000000     0.308635000000     0.101242   
H35      H      0.893830000000     0.536470000000     0.808635000000     0.101242   
H36      H      0.851830000000     0.508870000000     0.322185000000     0.172128   
H36      H      0.851830000000     0.508870000000     0.822185000000     0.172128   
C57      C      0.859870000000     0.539350000000     0.373150000000    -0.211492   
C57      C      0.859870000000     0.539350000000     0.873150000000    -0.211492   
H37      H      0.873930000000     0.552170000000     0.391385000000     0.110431   
H37      H      0.873930000000     0.552170000000     0.891385000000     0.110431   
H38      H      0.848130000000     0.511070000000     0.376185000000     0.113562   
H38      H      0.848130000000     0.511070000000     0.876185000000     0.113562   
C58      C      0.827230000000     0.548190000000     0.369290000000    -0.00348393 
C58      C      0.827230000000     0.548190000000     0.869290000000    -0.00348393 
C59      C      0.799580000000     0.539810000000     0.390655000000    -0.191019   
C59      C      0.799580000000     0.539810000000     0.890655000000    -0.191019   
H39      H      0.801430000000     0.528970000000     0.408735000000     0.0888619  
H39      H      0.801430000000     0.528970000000     0.908735000000     0.0888619  
C60      C      0.768510000000     0.547080000000     0.386225000000     0.0898885  
C60      C      0.768510000000     0.547080000000     0.886225000000     0.0898885  
H40      H      0.749630000000     0.540170000000     0.401235000000    -0.182046   
H40      H      0.749630000000     0.540170000000     0.901235000000    -0.182046   
C61      C      0.764900000000     0.563420000000     0.361390000000     0.0791028  
C61      C      0.764900000000     0.563420000000     0.861390000000     0.0791028  
C62      C      0.792150000000     0.573300000000     0.338585000000     0.0875395  
C62      C      0.792150000000     0.573300000000     0.838585000000     0.0875395  
H41      H      0.790130000000     0.584870000000     0.320885000000     0.149804   
H41      H      0.790130000000     0.584870000000     0.820885000000     0.149804   
C63      C      0.822710000000     0.565240000000     0.343170000000    -0.196013   
C63      C      0.822710000000     0.565240000000     0.843170000000    -0.196013   
H42      H      0.841230000000     0.571570000000     0.327935000000     0.0915528  
H42      H      0.841230000000     0.571570000000     0.827935000000     0.0915528  
C64      C      0.924080000000     0.587430000000     0.350520000000     0.0905264  
C64      C      0.924080000000     0.587430000000     0.850520000000     0.0905264  
C65      C      0.930050000000     0.615760000000     0.372000000000     0.0132337  
C65      C      0.930050000000     0.615760000000     0.872000000000     0.0132337  
H43      H      0.910030000000     0.610370000000     0.385785000000    -0.128023   
H43      H      0.910030000000     0.610370000000     0.885785000000    -0.128023   
C66      C      0.964550000000     0.651400000000     0.373385000000     0.0762158  
C66      C      0.964550000000     0.651400000000     0.873385000000     0.0762158  
C67      C      0.994260000000     0.659950000000     0.352015000000     0.015973   
C67      C      0.994260000000     0.659950000000     0.852015000000     0.015973   
H44      H      0.017530000000     0.684370000000     0.352085000000    -0.175433   
H44      H      0.017530000000     0.684370000000     0.852085000000    -0.175433   
C68      C      0.988440000000     0.631870000000     0.331110000000     0.0976483  
C68      C      0.988440000000     0.631870000000     0.831110000000     0.0976483  
C69      C      0.954360000000     0.596000000000     0.330485000000     0.057219   
C69      C      0.954360000000     0.596000000000     0.830485000000     0.057219   
H45      H      0.951530000000     0.577170000000     0.316435000000    -0.04731    
H45      H      0.951530000000     0.577170000000     0.816435000000    -0.04731    
C70      C      0.730930000000     0.572040000000     0.357590000000     0.0517647  
C70      C      0.730930000000     0.572040000000     0.857590000000     0.0517647  
C71      C      0.020020000000     0.640410000000     0.307940000000    -0.0905942  
C71      C      0.020020000000     0.640410000000     0.807940000000    -0.0905942  
C72      C      0.970250000000     0.680480000000     0.398060000000     0.0175304  
C72      C      0.970250000000     0.680480000000     0.898060000000     0.0175304  
N3       N      0.887940000000     0.550550000000     0.349830000000     0.0235035  
N3       N      0.887940000000     0.550550000000     0.849830000000     0.0235035  
Mn7      Mn     0.261760000000     0.925680000000     0.046180000000    -0.0776102  
Mn7      Mn     0.261760000000     0.925680000000     0.546180000000    -0.0776102  
Mn8      Mn     0.344370000000     0.924370000000     0.016890000000    -0.0575053  
Mn8      Mn     0.344370000000     0.924370000000     0.516890000000    -0.0575053  
O25      O      0.080100000000     0.474710000000     0.498810000000     0.0655232  
O25      O      0.080100000000     0.474710000000     0.998810000000     0.0655232  
O26      O      0.102430000000     0.475910000000     0.044850000000     0.306331   
O26      O      0.102430000000     0.475910000000     0.544850000000     0.306331   
O27      O      0.053010000000     0.736430000000     0.457385000000     0.321165   
O27      O      0.053010000000     0.736430000000     0.957385000000     0.321165   
O28      O      0.991550000000     0.708370000000     0.472800000000     0.375925   
O28      O      0.991550000000     0.708370000000     0.972800000000     0.375925   
O29      O      0.952820000000     0.620640000000     0.064715000000    -0.0779164  
O29      O      0.952820000000     0.620640000000     0.564715000000    -0.0779164  
O30      O      0.997880000000     0.608260000000     0.083945000000     0.73079    
O30      O      0.997880000000     0.608260000000     0.583945000000     0.73079    
O31      O      0.295720000000     0.867560000000     0.005190000000     0.930766   
O31      O      0.295720000000     0.867560000000     0.505190000000     0.930766   
O32      O      0.257430000000     0.870110000000     0.041825000000    -0.324697   
O32      O      0.257430000000     0.870110000000     0.541825000000    -0.324697   
C73      C      0.264840000000     0.853300000000     0.021335000000    -0.323938   
C73      C      0.264840000000     0.853300000000     0.521335000000    -0.323938   
C74      C      0.233860000000     0.811400000000     0.013165000000    -0.323727   
C74      C      0.233860000000     0.811400000000     0.513165000000    -0.323727   
C75      C      0.236840000000     0.792660000000     0.486820000000    -0.413447   
C75      C      0.236840000000     0.792660000000     0.986820000000    -0.413447   
H46      H      0.258100000000     0.805900000000     0.473750000000    -0.384632   
H46      H      0.258100000000     0.805900000000     0.973750000000    -0.384632   
C76      C      0.207290000000     0.754290000000     0.481170000000    -0.402001   
C76      C      0.207290000000     0.754290000000     0.981170000000    -0.402001   
H47      H      0.208900000000     0.741800000000     0.463900000000    -0.375302   
H47      H      0.208900000000     0.741800000000     0.963900000000    -0.375302   
C77      C      0.175720000000     0.733900000000     0.499925000000    -0.40416    
C77      C      0.175720000000     0.733900000000     0.999925000000    -0.40416    
C78      C      0.173420000000     0.752690000000     0.024685000000     0.39416    
C78      C      0.173420000000     0.752690000000     0.524685000000     0.39416    
H48      H      0.152100000000     0.739100000000     0.037600000000    -0.168159   
H48      H      0.152100000000     0.739100000000     0.537600000000    -0.168159   
C79      C      0.201630000000     0.791470000000     0.031595000000     0.110697   
C79      C      0.201630000000     0.791470000000     0.531595000000     0.110697   
H49      H      0.198700000000     0.803800000000     0.048500000000     0.00572218 
H49      H      0.198700000000     0.803800000000     0.548500000000     0.00572218 
C80      C      0.144370000000     0.690970000000     0.493245000000    -0.210545   
C80      C      0.144370000000     0.690970000000     0.993245000000    -0.210545   
H50      H      0.130200000000     0.690700000000     0.475300000000     0.101259   
H50      H      0.130200000000     0.690700000000     0.975300000000     0.101259   
H51      H      0.157800000000     0.676300000000     0.488850000000     0.172153   
H51      H      0.157800000000     0.676300000000     0.988850000000     0.172153   
C81      C      0.127320000000     0.653860000000     0.039815000000    -0.21156    
C81      C      0.127320000000     0.653860000000     0.539815000000    -0.21156    
H52      H      0.114500000000     0.655100000000     0.058050000000     0.110462   
H52      H      0.114500000000     0.655100000000     0.558050000000     0.110462   
H53      H      0.155600000000     0.670400000000     0.042850000000     0.113612   
H53      H      0.155600000000     0.670400000000     0.542850000000     0.113612   
C82      C      0.118480000000     0.612380000000     0.035955000000    -0.00349416 
C82      C      0.118480000000     0.612380000000     0.535955000000    -0.00349416 
C83      C      0.126860000000     0.593110000000     0.057320000000    -0.191062   
C83      C      0.126860000000     0.593110000000     0.557320000000    -0.191062   
H54      H      0.137700000000     0.605800000000     0.075400000000     0.088888   
H54      H      0.137700000000     0.605800000000     0.575400000000     0.088888   
C84      C      0.119590000000     0.554770000000     0.052890000000     0.0899248  
C84      C      0.119590000000     0.554770000000     0.552890000000     0.0899248  
H55      H      0.126500000000     0.542800000000     0.067900000000    -0.182307   
H55      H      0.126500000000     0.542800000000     0.567900000000    -0.182307   
C85      C      0.103250000000     0.534820000000     0.028055000000     0.0791665  
C85      C      0.103250000000     0.534820000000     0.528055000000     0.0791665  
C86      C      0.093370000000     0.552190000000     0.005250000000     0.0876627  
C86      C      0.093370000000     0.552190000000     0.505250000000     0.0876627  
H56      H      0.081800000000     0.538600000000     0.487550000000     0.149911   
H56      H      0.081800000000     0.538600000000     0.987550000000     0.149911   
C87      C      0.101430000000     0.590810000000     0.009835000000    -0.196093   
C87      C      0.101430000000     0.590810000000     0.509835000000    -0.196093   
H57      H      0.095100000000     0.603000000000     0.494600000000     0.0915768  
H57      H      0.095100000000     0.603000000000     0.994600000000     0.0915768  
C88      C      0.079240000000     0.669990000000     0.017185000000     0.0905768  
C88      C      0.079240000000     0.669990000000     0.517185000000     0.0905768  
C89      C      0.050910000000     0.647630000000     0.038665000000     0.0132206  
C89      C      0.050910000000     0.647630000000     0.538665000000     0.0132206  
H58      H      0.056300000000     0.633000000000     0.052450000000    -0.12804    
H58      H      0.056300000000     0.633000000000     0.552450000000    -0.12804    
C90      C      0.015270000000     0.646490000000     0.040050000000     0.0762497  
C90      C      0.015270000000     0.646490000000     0.540050000000     0.0762497  
C91      C      0.006720000000     0.667650000000     0.018680000000     0.0159622  
C91      C      0.006720000000     0.667650000000     0.518680000000     0.0159622  
H59      H      0.982300000000     0.666500000000     0.018750000000    -0.175519   
H59      H      0.982300000000     0.666500000000     0.518750000000    -0.175519   
C92      C      0.034800000000     0.689910000000     0.497775000000     0.097665   
C92      C      0.034800000000     0.689910000000     0.997775000000     0.097665   
C93      C      0.070670000000     0.691700000000     0.497150000000     0.057209   
C93      C      0.070670000000     0.691700000000     0.997150000000     0.057209   
H60      H      0.089500000000     0.707700000000     0.483100000000    -0.0473019  
H60      H      0.089500000000     0.707700000000     0.983100000000    -0.0473019  
C94      C      0.094630000000     0.492230000000     0.024255000000     0.0517694  
C94      C      0.094630000000     0.492230000000     0.524255000000     0.0517694  
C95      C      0.026260000000     0.712950000000     0.474605000000    -0.0907232  
C95      C      0.026260000000     0.712950000000     0.974605000000    -0.0907232  
C96      C      0.986190000000     0.623110000000     0.064725000000     0.017947   
C96      C      0.986190000000     0.623110000000     0.564725000000     0.017947   
N4       N      0.116120000000     0.670730000000     0.016495000000     0.0232723  
N4       N      0.116120000000     0.670730000000     0.516495000000     0.0232723  
Mn9      Mn     0.928430000000     0.259010000000     0.212845000000    -0.0777934  
Mn9      Mn     0.928430000000     0.259010000000     0.712845000000    -0.0777934  
Mn10     Mn     0.011030000000     0.257710000000     0.183560000000    -0.0573907  
Mn10     Mn     0.011030000000     0.257710000000     0.683560000000    -0.0573907  
O33      O      0.746770000000     0.808040000000     0.165475000000     0.0654895  
O33      O      0.746770000000     0.808040000000     0.665475000000     0.0654895  
O34      O      0.769100000000     0.809240000000     0.211515000000     0.306314   
O34      O      0.769100000000     0.809240000000     0.711515000000     0.306314   
O35      O      0.719680000000     0.069760000000     0.124050000000     0.32133    
O35      O      0.719680000000     0.069760000000     0.624050000000     0.32133    
O36      O      0.658220000000     0.041700000000     0.139465000000     0.375913   
O36      O      0.658220000000     0.041700000000     0.639465000000     0.375913   
O37      O      0.619490000000     0.953970000000     0.231380000000    -0.0778459  
O37      O      0.619490000000     0.953970000000     0.731380000000    -0.0778459  
O38      O      0.664550000000     0.941590000000     0.250610000000     0.730786   
O38      O      0.664550000000     0.941590000000     0.750610000000     0.730786   
O39      O      0.962390000000     0.200890000000     0.171855000000     0.930987   
O39      O      0.962390000000     0.200890000000     0.671855000000     0.930987   
O40      O      0.924100000000     0.203440000000     0.208490000000    -0.324637   
O40      O      0.924100000000     0.203440000000     0.708490000000    -0.324637   
C97      C      0.931510000000     0.186630000000     0.188000000000    -0.323883   
C97      C      0.931510000000     0.186630000000     0.688000000000    -0.323883   
C98      C      0.900530000000     0.144730000000     0.179830000000    -0.323774   
C98      C      0.900530000000     0.144730000000     0.679830000000    -0.323774   
C99      C      0.903510000000     0.125990000000     0.153485000000    -0.413419   
C99      C      0.903510000000     0.125990000000     0.653485000000    -0.413419   
H61      H      0.924770000000     0.139230000000     0.140415000000    -0.384601   
H61      H      0.924770000000     0.139230000000     0.640415000000    -0.384601   
C100     C      0.873960000000     0.087620000000     0.147835000000    -0.401989   
C100     C      0.873960000000     0.087620000000     0.647835000000    -0.401989   
H62      H      0.875570000000     0.075130000000     0.130565000000    -0.375389   
H62      H      0.875570000000     0.075130000000     0.630565000000    -0.375389   
C101     C      0.842390000000     0.067230000000     0.166590000000    -0.404193   
C101     C      0.842390000000     0.067230000000     0.666590000000    -0.404193   
C102     C      0.840090000000     0.086020000000     0.191350000000     0.394206   
C102     C      0.840090000000     0.086020000000     0.691350000000     0.394206   
H63      H      0.818770000000     0.072430000000     0.204265000000    -0.16818    
H63      H      0.818770000000     0.072430000000     0.704265000000    -0.16818    
C103     C      0.868300000000     0.124800000000     0.198260000000     0.110698   
C103     C      0.868300000000     0.124800000000     0.698260000000     0.110698   
H64      H      0.865370000000     0.137130000000     0.215165000000     0.00570618 
H64      H      0.865370000000     0.137130000000     0.715165000000     0.00570618 
C104     C      0.811040000000     0.024300000000     0.159910000000    -0.210543   
C104     C      0.811040000000     0.024300000000     0.659910000000    -0.210543   
H65      H      0.796870000000     0.024030000000     0.141965000000     0.101244   
H65      H      0.796870000000     0.024030000000     0.641965000000     0.101244   
H66      H      0.824470000000     0.009630000000     0.155515000000     0.172134   
H66      H      0.824470000000     0.009630000000     0.655515000000     0.172134   
C105     C      0.793990000000     0.987190000000     0.206480000000    -0.211554   
C105     C      0.793990000000     0.987190000000     0.706480000000    -0.211554   
H67      H      0.781170000000     0.988430000000     0.224715000000     0.110453   
H67      H      0.781170000000     0.988430000000     0.724715000000     0.110453   
H68      H      0.822270000000     0.003730000000     0.209515000000     0.113613   
H68      H      0.822270000000     0.003730000000     0.709515000000     0.113613   
C106     C      0.785150000000     0.945710000000     0.202620000000    -0.00349732 
C106     C      0.785150000000     0.945710000000     0.702620000000    -0.00349732 
C107     C      0.793530000000     0.926440000000     0.223985000000    -0.191024   
C107     C      0.793530000000     0.926440000000     0.723985000000    -0.191024   
H69      H      0.804370000000     0.939130000000     0.242065000000     0.0888659  
H69      H      0.804370000000     0.939130000000     0.742065000000     0.0888659  
C108     C      0.786260000000     0.888100000000     0.219555000000     0.0898905  
C108     C      0.786260000000     0.888100000000     0.719555000000     0.0898905  
H70      H      0.793170000000     0.876130000000     0.234565000000    -0.182053   
H70      H      0.793170000000     0.876130000000     0.734565000000    -0.182053   
C109     C      0.769920000000     0.868150000000     0.194720000000     0.0791078  
C109     C      0.769920000000     0.868150000000     0.694720000000     0.0791078  
C110     C      0.760040000000     0.885520000000     0.171915000000     0.08754    
C110     C      0.760040000000     0.885520000000     0.671915000000     0.08754    
H71      H      0.748470000000     0.871930000000     0.154215000000     0.149809   
H71      H      0.748470000000     0.871930000000     0.654215000000     0.149809   
C111     C      0.768100000000     0.924140000000     0.176500000000    -0.196009   
C111     C      0.768100000000     0.924140000000     0.676500000000    -0.196009   
H72      H      0.761770000000     0.936330000000     0.161265000000     0.0915528  
H72      H      0.761770000000     0.936330000000     0.661265000000     0.0915528  
C112     C      0.745910000000     0.003320000000     0.183850000000     0.0905193  
C112     C      0.745910000000     0.003320000000     0.683850000000     0.0905193  
C113     C      0.717580000000     0.980960000000     0.205330000000     0.0132388  
C113     C      0.717580000000     0.980960000000     0.705330000000     0.0132388  
H73      H      0.722970000000     0.966330000000     0.219115000000    -0.128007   
H73      H      0.722970000000     0.966330000000     0.719115000000    -0.128007   
C114     C      0.681940000000     0.979820000000     0.206715000000     0.0762001  
C114     C      0.681940000000     0.979820000000     0.706715000000     0.0762001  
C115     C      0.673390000000     0.000980000000     0.185345000000     0.0159808  
C115     C      0.673390000000     0.000980000000     0.685345000000     0.0159808  
H74      H      0.648970000000     0.999830000000     0.185415000000    -0.175443   
H74      H      0.648970000000     0.999830000000     0.685415000000    -0.175443   
C116     C      0.701470000000     0.023240000000     0.164440000000     0.0976522  
C116     C      0.701470000000     0.023240000000     0.664440000000     0.0976522  
C117     C      0.737340000000     0.025030000000     0.163815000000     0.0571859  
C117     C      0.737340000000     0.025030000000     0.663815000000     0.0571859  
H75      H      0.756170000000     0.041030000000     0.149765000000    -0.0472912  
H75      H      0.756170000000     0.041030000000     0.649765000000    -0.0472912  
C118     C      0.761300000000     0.825560000000     0.190920000000     0.0517693  
C118     C      0.761300000000     0.825560000000     0.690920000000     0.0517693  
C119     C      0.692930000000     0.046280000000     0.141270000000    -0.0905797  
C119     C      0.692930000000     0.046280000000     0.641270000000    -0.0905797  
C120     C      0.652860000000     0.956440000000     0.231390000000     0.0176625  
C120     C      0.652860000000     0.956440000000     0.731390000000     0.0176625  
N5       N      0.782790000000     0.004060000000     0.183160000000     0.0234223  
N5       N      0.782790000000     0.004060000000     0.683160000000     0.0234223  
Mn11     Mn     0.595100000000     0.592350000000     0.379515000000    -0.0776808  
Mn11     Mn     0.595100000000     0.592350000000     0.879515000000    -0.0776808  
Mn12     Mn     0.677700000000     0.591040000000     0.350225000000    -0.0574558  
Mn12     Mn     0.677700000000     0.591040000000     0.850225000000    -0.0574558  
O41      O      0.413430000000     0.141380000000     0.332145000000     0.0655092  
O41      O      0.413430000000     0.141380000000     0.832145000000     0.0655092  
O42      O      0.435760000000     0.142580000000     0.378185000000     0.306312   
O42      O      0.435760000000     0.142580000000     0.878185000000     0.306312   
O43      O      0.386340000000     0.403100000000     0.290720000000     0.321271   
O43      O      0.386340000000     0.403100000000     0.790720000000     0.321271   
O44      O      0.324880000000     0.375040000000     0.306135000000     0.375881   
O44      O      0.324880000000     0.375040000000     0.806135000000     0.375881   
O45      O      0.286150000000     0.287310000000     0.398050000000    -0.0779115  
O45      O      0.286150000000     0.287310000000     0.898050000000    -0.0779115  
O46      O      0.331210000000     0.274930000000     0.417280000000     0.730679   
O46      O      0.331210000000     0.274930000000     0.917280000000     0.730679   
O47      O      0.629050000000     0.534230000000     0.338525000000     0.930876   
O47      O      0.629050000000     0.534230000000     0.838525000000     0.930876   
O48      O      0.590760000000     0.536780000000     0.375160000000    -0.324659   
O48      O      0.590760000000     0.536780000000     0.875160000000    -0.324659   
C121     C      0.598170000000     0.519970000000     0.354670000000    -0.323876   
C121     C      0.598170000000     0.519970000000     0.854670000000    -0.323876   
C122     C      0.567190000000     0.478070000000     0.346500000000    -0.323751   
C122     C      0.567190000000     0.478070000000     0.846500000000    -0.323751   
C123     C      0.570170000000     0.459330000000     0.320155000000    -0.413371   
C123     C      0.570170000000     0.459330000000     0.820155000000    -0.413371   
H76      H      0.591430000000     0.472570000000     0.307085000000    -0.38461    
H76      H      0.591430000000     0.472570000000     0.807085000000    -0.38461    
C124     C      0.540620000000     0.420960000000     0.314505000000    -0.401989   
C124     C      0.540620000000     0.420960000000     0.814505000000    -0.401989   
H77      H      0.542230000000     0.408470000000     0.297235000000    -0.375396   
H77      H      0.542230000000     0.408470000000     0.797235000000    -0.375396   
C125     C      0.509050000000     0.400570000000     0.333260000000    -0.404162   
C125     C      0.509050000000     0.400570000000     0.833260000000    -0.404162   
C126     C      0.506750000000     0.419360000000     0.358020000000     0.394173   
C126     C      0.506750000000     0.419360000000     0.858020000000     0.394173   
H78      H      0.485430000000     0.405770000000     0.370935000000    -0.168132   
H78      H      0.485430000000     0.405770000000     0.870935000000    -0.168132   
C127     C      0.534960000000     0.458140000000     0.364930000000     0.110693   
C127     C      0.534960000000     0.458140000000     0.864930000000     0.110693   
H79      H      0.532030000000     0.470470000000     0.381835000000     0.00570874 
H79      H      0.532030000000     0.470470000000     0.881835000000     0.00570874 
C128     C      0.477700000000     0.357640000000     0.326580000000    -0.210539   
C128     C      0.477700000000     0.357640000000     0.826580000000    -0.210539   
H80      H      0.463530000000     0.357370000000     0.308635000000     0.101243   
H80      H      0.463530000000     0.357370000000     0.808635000000     0.101243   
H81      H      0.491130000000     0.342970000000     0.322185000000     0.17213    
H81      H      0.491130000000     0.342970000000     0.822185000000     0.17213    
C129     C      0.460650000000     0.320530000000     0.373150000000    -0.211493   
C129     C      0.460650000000     0.320530000000     0.873150000000    -0.211493   
H82      H      0.447830000000     0.321770000000     0.391385000000     0.110433   
H82      H      0.447830000000     0.321770000000     0.891385000000     0.110433   
H83      H      0.488930000000     0.337070000000     0.376185000000     0.113562   
H83      H      0.488930000000     0.337070000000     0.876185000000     0.113562   
C130     C      0.451810000000     0.279050000000     0.369290000000    -0.00348188 
C130     C      0.451810000000     0.279050000000     0.869290000000    -0.00348188 
C131     C      0.460190000000     0.259780000000     0.390655000000    -0.191023   
C131     C      0.460190000000     0.259780000000     0.890655000000    -0.191023   
H84      H      0.471030000000     0.272470000000     0.408735000000     0.0888662  
H84      H      0.471030000000     0.272470000000     0.908735000000     0.0888662  
C132     C      0.452920000000     0.221440000000     0.386225000000     0.0898909  
C132     C      0.452920000000     0.221440000000     0.886225000000     0.0898909  
H85      H      0.459830000000     0.209470000000     0.401235000000    -0.182049   
H85      H      0.459830000000     0.209470000000     0.901235000000    -0.182049   
C133     C      0.436580000000     0.201490000000     0.361390000000     0.0791086  
C133     C      0.436580000000     0.201490000000     0.861390000000     0.0791086  
C134     C      0.426700000000     0.218860000000     0.338585000000     0.0875412  
C134     C      0.426700000000     0.218860000000     0.838585000000     0.0875412  
H86      H      0.415130000000     0.205270000000     0.320885000000     0.149807   
H86      H      0.415130000000     0.205270000000     0.820885000000     0.149807   
C135     C      0.434760000000     0.257480000000     0.343170000000    -0.196008   
C135     C      0.434760000000     0.257480000000     0.843170000000    -0.196008   
H87      H      0.428430000000     0.269670000000     0.327935000000     0.0915556  
H87      H      0.428430000000     0.269670000000     0.827935000000     0.0915556  
C136     C      0.412570000000     0.336660000000     0.350520000000     0.0905246  
C136     C      0.412570000000     0.336660000000     0.850520000000     0.0905246  
C137     C      0.384240000000     0.314300000000     0.372000000000     0.0132392  
C137     C      0.384240000000     0.314300000000     0.872000000000     0.0132392  
H88      H      0.389630000000     0.299670000000     0.385785000000    -0.128013   
H88      H      0.389630000000     0.299670000000     0.885785000000    -0.128013   
C138     C      0.348600000000     0.313160000000     0.373385000000     0.076215   
C138     C      0.348600000000     0.313160000000     0.873385000000     0.076215   
C139     C      0.340050000000     0.334320000000     0.352015000000     0.0159818  
C139     C      0.340050000000     0.334320000000     0.852015000000     0.0159818  
H89      H      0.315630000000     0.333170000000     0.352085000000    -0.175428   
H89      H      0.315630000000     0.333170000000     0.852085000000    -0.175428   
C140     C      0.368130000000     0.356580000000     0.331110000000     0.0976528  
C140     C      0.368130000000     0.356580000000     0.831110000000     0.0976528  
C141     C      0.404000000000     0.358370000000     0.330485000000     0.0572075  
C141     C      0.404000000000     0.358370000000     0.830485000000     0.0572075  
H90      H      0.422830000000     0.374370000000     0.316435000000    -0.0473028  
H90      H      0.422830000000     0.374370000000     0.816435000000    -0.0473028  
C142     C      0.427960000000     0.158900000000     0.357590000000     0.0517779  
C142     C      0.427960000000     0.158900000000     0.857590000000     0.0517779  
C143     C      0.359590000000     0.379620000000     0.307940000000    -0.0905744  
C143     C      0.359590000000     0.379620000000     0.807940000000    -0.0905744  
C144     C      0.319520000000     0.289780000000     0.398060000000     0.0176692  
C144     C      0.319520000000     0.289780000000     0.898060000000     0.0176692  
N6       N      0.449450000000     0.337400000000     0.349830000000     0.0234249  
N6       N      0.449450000000     0.337400000000     0.849830000000     0.0234249  
Mn13     Mn     0.074320000000     0.336080000000     0.046180000000    -0.077667   
Mn13     Mn     0.074320000000     0.336080000000     0.546180000000    -0.077667   
Mn14     Mn     0.075630000000     0.419990000000     0.016890000000    -0.0574649  
Mn14     Mn     0.075630000000     0.419990000000     0.516890000000    -0.0574649  
O49      O      0.525290000000     0.605390000000     0.498810000000     0.0655124  
O49      O      0.525290000000     0.605390000000     0.998810000000     0.0655124  
O50      O      0.524090000000     0.626520000000     0.044850000000     0.306327   
O50      O      0.524090000000     0.626520000000     0.544850000000     0.306327   
O51      O      0.263570000000     0.316580000000     0.457385000000     0.321253   
O51      O      0.263570000000     0.316580000000     0.957385000000     0.321253   
O52      O      0.291630000000     0.283180000000     0.472800000000     0.375874   
O52      O      0.291630000000     0.283180000000     0.972800000000     0.375874   
O53      O      0.379360000000     0.332180000000     0.064715000000    -0.0779125  
O53      O      0.379360000000     0.332180000000     0.564715000000    -0.0779125  
O54      O      0.391740000000     0.389620000000     0.083945000000     0.730716   
O54      O      0.391740000000     0.389620000000     0.583945000000     0.730716   
O55      O      0.132440000000     0.428160000000     0.005190000000     0.930933   
O55      O      0.132440000000     0.428160000000     0.505190000000     0.930933   
O56      O      0.129890000000     0.387320000000     0.041825000000    -0.324658   
O56      O      0.129890000000     0.387320000000     0.541825000000    -0.324658   
C145     C      0.146700000000     0.411540000000     0.021335000000    -0.32396    
C145     C      0.146700000000     0.411540000000     0.521335000000    -0.32396    
C146     C      0.188600000000     0.422460000000     0.013165000000    -0.323773   
C146     C      0.188600000000     0.422460000000     0.513165000000    -0.323773   
C147     C      0.207340000000     0.444180000000     0.486820000000    -0.413486   
C147     C      0.207340000000     0.444180000000     0.986820000000    -0.413486   
H91      H      0.194100000000     0.452200000000     0.473750000000    -0.384623   
H91      H      0.194100000000     0.452200000000     0.973750000000    -0.384623   
C148     C      0.245710000000     0.453000000000     0.481170000000    -0.401989   
C148     C      0.245710000000     0.453000000000     0.981170000000    -0.401989   
H92      H      0.258200000000     0.467100000000     0.463900000000    -0.375296   
H92      H      0.258200000000     0.467100000000     0.963900000000    -0.375296   
C149     C      0.266100000000     0.441820000000     0.499925000000    -0.404147   
C149     C      0.266100000000     0.441820000000     0.999925000000    -0.404147   
C150     C      0.247310000000     0.420730000000     0.024685000000     0.394162   
C150     C      0.247310000000     0.420730000000     0.524685000000     0.394162   
H93      H      0.260900000000     0.413000000000     0.037600000000    -0.168172   
H93      H      0.260900000000     0.413000000000     0.537600000000    -0.168172   
C151     C      0.208530000000     0.410160000000     0.031595000000     0.110699   
C151     C      0.208530000000     0.410160000000     0.531595000000     0.110699   
H94      H      0.196200000000     0.394900000000     0.048500000000     0.00570718 
H94      H      0.196200000000     0.394900000000     0.548500000000     0.00570718 
C152     C      0.309030000000     0.453400000000     0.493245000000    -0.210551   
C152     C      0.309030000000     0.453400000000     0.993245000000    -0.210551   
H95      H      0.309300000000     0.439500000000     0.475300000000     0.101253   
H95      H      0.309300000000     0.439500000000     0.975300000000     0.101253   
H96      H      0.323700000000     0.481500000000     0.488850000000     0.172151   
H96      H      0.323700000000     0.481500000000     0.988850000000     0.172151   
C153     C      0.346140000000     0.473460000000     0.039815000000    -0.211565   
C153     C      0.346140000000     0.473460000000     0.539815000000    -0.211565   
H97      H      0.344900000000     0.459400000000     0.058050000000     0.110462   
H97      H      0.344900000000     0.459400000000     0.558050000000     0.110462   
H98      H      0.329600000000     0.485200000000     0.042850000000     0.113615   
H98      H      0.329600000000     0.485200000000     0.542850000000     0.113615   
C154     C      0.387620000000     0.506100000000     0.035955000000    -0.00349806 
C154     C      0.387620000000     0.506100000000     0.535955000000    -0.00349806 
C155     C      0.406890000000     0.533750000000     0.057320000000    -0.191059   
C155     C      0.406890000000     0.533750000000     0.557320000000    -0.191059   
H99      H      0.394200000000     0.531900000000     0.075400000000     0.0888855  
H99      H      0.394200000000     0.531900000000     0.575400000000     0.0888855  
C156     C      0.445230000000     0.564820000000     0.052890000000     0.0899177  
C156     C      0.445230000000     0.564820000000     0.552890000000     0.0899177  
H100     H      0.457200000000     0.583700000000     0.067900000000    -0.182301   
H100     H      0.457200000000     0.583700000000     0.567900000000    -0.182301   
C157     C      0.465180000000     0.568430000000     0.028055000000     0.0791616  
C157     C      0.465180000000     0.568430000000     0.528055000000     0.0791616  
C158     C      0.447810000000     0.541180000000     0.005250000000     0.0876543  
C158     C      0.447810000000     0.541180000000     0.505250000000     0.0876543  
H101     H      0.461400000000     0.543200000000     0.487550000000     0.149909   
H101     H      0.461400000000     0.543200000000     0.987550000000     0.149909   
C159     C      0.409190000000     0.510620000000     0.009835000000    -0.196102   
C159     C      0.409190000000     0.510620000000     0.509835000000    -0.196102   
H102     H      0.397000000000     0.492100000000     0.494600000000     0.0915702  
H102     H      0.397000000000     0.492100000000     0.994600000000     0.0915702  
C160     C      0.330010000000     0.409250000000     0.017185000000     0.0905829  
C160     C      0.330010000000     0.409250000000     0.517185000000     0.0905829  
C161     C      0.352370000000     0.403280000000     0.038665000000     0.0132069  
C161     C      0.352370000000     0.403280000000     0.538665000000     0.0132069  
H103     H      0.367000000000     0.423300000000     0.052450000000    -0.128057   
H103     H      0.367000000000     0.423300000000     0.552450000000    -0.128057   
C162     C      0.353510000000     0.368780000000     0.040050000000     0.0762546  
C162     C      0.353510000000     0.368780000000     0.540050000000     0.0762546  
C163     C      0.332350000000     0.339070000000     0.018680000000     0.0159558  
C163     C      0.332350000000     0.339070000000     0.518680000000     0.0159558  
H104     H      0.333500000000     0.315800000000     0.018750000000    -0.175524   
H104     H      0.333500000000     0.315800000000     0.518750000000    -0.175524   
C164     C      0.310090000000     0.344890000000     0.497775000000     0.0976648  
C164     C      0.310090000000     0.344890000000     0.997775000000     0.0976648  
C165     C      0.308300000000     0.378970000000     0.497150000000     0.0572034  
C165     C      0.308300000000     0.378970000000     0.997150000000     0.0572034  
H105     H      0.292300000000     0.381800000000     0.483100000000    -0.0472948  
H105     H      0.292300000000     0.381800000000     0.983100000000    -0.0472948  
C166     C      0.507770000000     0.602400000000     0.024255000000     0.0517633  
C166     C      0.507770000000     0.602400000000     0.524255000000     0.0517633  
C167     C      0.287050000000     0.313310000000     0.474605000000    -0.0907299  
C167     C      0.287050000000     0.313310000000     0.974605000000    -0.0907299  
C168     C      0.376890000000     0.363080000000     0.064725000000     0.0179556  
C168     C      0.376890000000     0.363080000000     0.564725000000     0.0179556  
N7       N      0.329270000000     0.445390000000     0.016495000000     0.0232647  
N7       N      0.329270000000     0.445390000000     0.516495000000     0.0232647  
Mn15     Mn     0.740990000000     0.669410000000     0.212845000000    -0.0778059  
Mn15     Mn     0.740990000000     0.669410000000     0.712845000000    -0.0778059  
Mn16     Mn     0.742290000000     0.753330000000     0.183560000000    -0.0573827  
Mn16     Mn     0.742290000000     0.753330000000     0.683560000000    -0.0573827  
O57      O      0.191960000000     0.938720000000     0.165475000000     0.0654876  
O57      O      0.191960000000     0.938720000000     0.665475000000     0.0654876  
O58      O      0.190760000000     0.959850000000     0.211515000000     0.306324   
O58      O      0.190760000000     0.959850000000     0.711515000000     0.306324   
O59      O      0.930240000000     0.649910000000     0.124050000000     0.321349   
O59      O      0.930240000000     0.649910000000     0.624050000000     0.321349   
O60      O      0.958300000000     0.616510000000     0.139465000000     0.375917   
O60      O      0.958300000000     0.616510000000     0.639465000000     0.375917   
O61      O      0.046030000000     0.665510000000     0.231380000000    -0.077847   
O61      O      0.046030000000     0.665510000000     0.731380000000    -0.077847   
O62      O      0.058410000000     0.722950000000     0.250610000000     0.730867   
O62      O      0.058410000000     0.722950000000     0.750610000000     0.730867   
O63      O      0.799110000000     0.761490000000     0.171855000000     0.93094    
O63      O      0.799110000000     0.761490000000     0.671855000000     0.93094    
O64      O      0.796560000000     0.720650000000     0.208490000000    -0.324654   
O64      O      0.796560000000     0.720650000000     0.708490000000    -0.324654   
C169     C      0.813370000000     0.744870000000     0.188000000000    -0.323883   
C169     C      0.813370000000     0.744870000000     0.688000000000    -0.323883   
C170     C      0.855270000000     0.755790000000     0.179830000000    -0.323698   
C170     C      0.855270000000     0.755790000000     0.679830000000    -0.323698   
C171     C      0.874010000000     0.777510000000     0.153485000000    -0.413381   
C171     C      0.874010000000     0.777510000000     0.653485000000    -0.413381   
H106     H      0.860770000000     0.785530000000     0.140415000000    -0.384678   
H106     H      0.860770000000     0.785530000000     0.640415000000    -0.384678   
C172     C      0.912380000000     0.786330000000     0.147835000000    -0.402039   
C172     C      0.912380000000     0.786330000000     0.647835000000    -0.402039   
H107     H      0.924870000000     0.800430000000     0.130565000000    -0.375404   
H107     H      0.924870000000     0.800430000000     0.630565000000    -0.375404   
C173     C      0.932770000000     0.775150000000     0.166590000000    -0.404166   
C173     C      0.932770000000     0.775150000000     0.666590000000    -0.404166   
C174     C      0.913980000000     0.754060000000     0.191350000000     0.394196   
C174     C      0.913980000000     0.754060000000     0.691350000000     0.394196   
H108     H      0.927570000000     0.746330000000     0.204265000000    -0.168172   
H108     H      0.927570000000     0.746330000000     0.704265000000    -0.168172   
C175     C      0.875200000000     0.743490000000     0.198260000000     0.110698   
C175     C      0.875200000000     0.743490000000     0.698260000000     0.110698   
H109     H      0.862870000000     0.728230000000     0.215165000000     0.00571017 
H109     H      0.862870000000     0.728230000000     0.715165000000     0.00571017 
C176     C      0.975700000000     0.786730000000     0.159910000000    -0.21054    
C176     C      0.975700000000     0.786730000000     0.659910000000    -0.21054    
H110     H      0.975970000000     0.772830000000     0.141965000000     0.101246   
H110     H      0.975970000000     0.772830000000     0.641965000000     0.101246   
H111     H      0.990370000000     0.814830000000     0.155515000000     0.172136   
H111     H      0.990370000000     0.814830000000     0.655515000000     0.172136   
C177     C      0.012810000000     0.806790000000     0.206480000000    -0.21155    
C177     C      0.012810000000     0.806790000000     0.706480000000    -0.21155    
H112     H      0.011570000000     0.792730000000     0.224715000000     0.110458   
H112     H      0.011570000000     0.792730000000     0.724715000000     0.110458   
H113     H      0.996270000000     0.818530000000     0.209515000000     0.113611   
H113     H      0.996270000000     0.818530000000     0.709515000000     0.113611   
C178     C      0.054290000000     0.839430000000     0.202620000000    -0.00349018 
C178     C      0.054290000000     0.839430000000     0.702620000000    -0.00349018 
C179     C      0.073560000000     0.867080000000     0.223985000000    -0.191027   
C179     C      0.073560000000     0.867080000000     0.723985000000    -0.191027   
H114     H      0.060870000000     0.865230000000     0.242065000000     0.0888712  
H114     H      0.060870000000     0.865230000000     0.742065000000     0.0888712  
C180     C      0.111900000000     0.898150000000     0.219555000000     0.0898922  
C180     C      0.111900000000     0.898150000000     0.719555000000     0.0898922  
H115     H      0.123870000000     0.917030000000     0.234565000000    -0.182061   
H115     H      0.123870000000     0.917030000000     0.734565000000    -0.182061   
C181     C      0.131850000000     0.901760000000     0.194720000000     0.079116   
C181     C      0.131850000000     0.901760000000     0.694720000000     0.079116   
C182     C      0.114480000000     0.874510000000     0.171915000000     0.0875437  
C182     C      0.114480000000     0.874510000000     0.671915000000     0.0875437  
H116     H      0.128070000000     0.876530000000     0.154215000000     0.149816   
H116     H      0.128070000000     0.876530000000     0.654215000000     0.149816   
C183     C      0.075860000000     0.843950000000     0.176500000000    -0.196012   
C183     C      0.075860000000     0.843950000000     0.676500000000    -0.196012   
H117     H      0.063670000000     0.825430000000     0.161265000000     0.0915576  
H117     H      0.063670000000     0.825430000000     0.661265000000     0.0915576  
C184     C      0.996680000000     0.742580000000     0.183850000000     0.090522   
C184     C      0.996680000000     0.742580000000     0.683850000000     0.090522   
C185     C      0.019040000000     0.736610000000     0.205330000000     0.0132389  
C185     C      0.019040000000     0.736610000000     0.705330000000     0.0132389  
H118     H      0.033670000000     0.756630000000     0.219115000000    -0.128006   
H118     H      0.033670000000     0.756630000000     0.719115000000    -0.128006   
C186     C      0.020180000000     0.702110000000     0.206715000000     0.0762028  
C186     C      0.020180000000     0.702110000000     0.706715000000     0.0762028  
C187     C      0.999020000000     0.672400000000     0.185345000000     0.0159819  
C187     C      0.999020000000     0.672400000000     0.685345000000     0.0159819  
H119     H      0.000170000000     0.649130000000     0.185415000000    -0.175446   
H119     H      0.000170000000     0.649130000000     0.685415000000    -0.175446   
C188     C      0.976760000000     0.678220000000     0.164440000000     0.0976553  
C188     C      0.976760000000     0.678220000000     0.664440000000     0.0976553  
C189     C      0.974970000000     0.712300000000     0.163815000000     0.0571728  
C189     C      0.974970000000     0.712300000000     0.663815000000     0.0571728  
H120     H      0.958970000000     0.715130000000     0.149765000000    -0.0472494  
H120     H      0.958970000000     0.715130000000     0.649765000000    -0.0472494  
C190     C      0.174440000000     0.935730000000     0.190920000000     0.0517626  
C190     C      0.174440000000     0.935730000000     0.690920000000     0.0517626  
C191     C      0.953720000000     0.646640000000     0.141270000000    -0.0906454  
C191     C      0.953720000000     0.646640000000     0.641270000000    -0.0906454  
C192     C      0.043560000000     0.696410000000     0.231390000000     0.0178088  
C192     C      0.043560000000     0.696410000000     0.731390000000     0.0178088  
N8       N      0.995940000000     0.778720000000     0.183160000000     0.0233377  
N8       N      0.995940000000     0.778720000000     0.683160000000     0.0233377  
Mn17     Mn     0.407650000000     0.002750000000     0.379515000000    -0.0776632  
Mn17     Mn     0.407650000000     0.002750000000     0.879515000000    -0.0776632  
Mn18     Mn     0.408960000000     0.086660000000     0.350225000000    -0.0574462  
Mn18     Mn     0.408960000000     0.086660000000     0.850225000000    -0.0574462  
O65      O      0.858620000000     0.272060000000     0.332145000000     0.065519   
O65      O      0.858620000000     0.272060000000     0.832145000000     0.065519   
O66      O      0.857420000000     0.293190000000     0.378185000000     0.306309   
O66      O      0.857420000000     0.293190000000     0.878185000000     0.306309   
O67      O      0.596900000000     0.983250000000     0.290720000000     0.321207   
O67      O      0.596900000000     0.983250000000     0.790720000000     0.321207   
O68      O      0.624960000000     0.949850000000     0.306135000000     0.375991   
O68      O      0.624960000000     0.949850000000     0.806135000000     0.375991   
O69      O      0.712690000000     0.998850000000     0.398050000000    -0.077907   
O69      O      0.712690000000     0.998850000000     0.898050000000    -0.077907   
O70      O      0.725070000000     0.056290000000     0.417280000000     0.730726   
O70      O      0.725070000000     0.056290000000     0.917280000000     0.730726   
O71      O      0.465770000000     0.094830000000     0.338525000000     0.930907   
O71      O      0.465770000000     0.094830000000     0.838525000000     0.930907   
O72      O      0.463220000000     0.053990000000     0.375160000000    -0.324694   
O72      O      0.463220000000     0.053990000000     0.875160000000    -0.324694   
C193     C      0.480030000000     0.078210000000     0.354670000000    -0.323924   
C193     C      0.480030000000     0.078210000000     0.854670000000    -0.323924   
C194     C      0.521930000000     0.089130000000     0.346500000000    -0.323723   
C194     C      0.521930000000     0.089130000000     0.846500000000    -0.323723   
C195     C      0.540670000000     0.110850000000     0.320155000000    -0.413377   
C195     C      0.540670000000     0.110850000000     0.820155000000    -0.413377   
H121     H      0.527430000000     0.118870000000     0.307085000000    -0.384605   
H121     H      0.527430000000     0.118870000000     0.807085000000    -0.384605   
C196     C      0.579040000000     0.119670000000     0.314505000000    -0.401976   
C196     C      0.579040000000     0.119670000000     0.814505000000    -0.401976   
H122     H      0.591530000000     0.133770000000     0.297235000000    -0.375333   
H122     H      0.591530000000     0.133770000000     0.797235000000    -0.375333   
C197     C      0.599430000000     0.108490000000     0.333260000000    -0.404149   
C197     C      0.599430000000     0.108490000000     0.833260000000    -0.404149   
C198     C      0.580640000000     0.087400000000     0.358020000000     0.394167   
C198     C      0.580640000000     0.087400000000     0.858020000000     0.394167   
H123     H      0.594230000000     0.079670000000     0.370935000000    -0.168164   
H123     H      0.594230000000     0.079670000000     0.870935000000    -0.168164   
C199     C      0.541860000000     0.076830000000     0.364930000000     0.110685   
C199     C      0.541860000000     0.076830000000     0.864930000000     0.110685   
H124     H      0.529530000000     0.061570000000     0.381835000000     0.00571076 
H124     H      0.529530000000     0.061570000000     0.881835000000     0.00571076 
C200     C      0.642360000000     0.120070000000     0.326580000000    -0.210532   
C200     C      0.642360000000     0.120070000000     0.826580000000    -0.210532   
H125     H      0.642630000000     0.106170000000     0.308635000000     0.10124    
H125     H      0.642630000000     0.106170000000     0.808635000000     0.10124    
H126     H      0.657030000000     0.148170000000     0.322185000000     0.172123   
H126     H      0.657030000000     0.148170000000     0.822185000000     0.172123   
C201     C      0.679470000000     0.140130000000     0.373150000000    -0.211543   
C201     C      0.679470000000     0.140130000000     0.873150000000    -0.211543   
H127     H      0.678230000000     0.126070000000     0.391385000000     0.110447   
H127     H      0.678230000000     0.126070000000     0.891385000000     0.110447   
H128     H      0.662930000000     0.151870000000     0.376185000000     0.113598   
H128     H      0.662930000000     0.151870000000     0.876185000000     0.113598   
C202     C      0.720950000000     0.172770000000     0.369290000000    -0.00349555 
C202     C      0.720950000000     0.172770000000     0.869290000000    -0.00349555 
C203     C      0.740220000000     0.200420000000     0.390655000000    -0.191016   
C203     C      0.740220000000     0.200420000000     0.890655000000    -0.191016   
H129     H      0.727530000000     0.198570000000     0.408735000000     0.0888612  
H129     H      0.727530000000     0.198570000000     0.908735000000     0.0888612  
C204     C      0.778560000000     0.231490000000     0.386225000000     0.089888   
C204     C      0.778560000000     0.231490000000     0.886225000000     0.089888   
H130     H      0.790530000000     0.250370000000     0.401235000000    -0.182048   
H130     H      0.790530000000     0.250370000000     0.901235000000    -0.182048   
C205     C      0.798510000000     0.235100000000     0.361390000000     0.079104   
C205     C      0.798510000000     0.235100000000     0.861390000000     0.079104   
C206     C      0.781140000000     0.207850000000     0.338585000000     0.0875388  
C206     C      0.781140000000     0.207850000000     0.838585000000     0.0875388  
H131     H      0.794730000000     0.209870000000     0.320885000000     0.149804   
H131     H      0.794730000000     0.209870000000     0.820885000000     0.149804   
C207     C      0.742520000000     0.177290000000     0.343170000000    -0.196005   
C207     C      0.742520000000     0.177290000000     0.843170000000    -0.196005   
H132     H      0.730330000000     0.158770000000     0.327935000000     0.0915505  
H132     H      0.730330000000     0.158770000000     0.827935000000     0.0915505  
C208     C      0.663340000000     0.075920000000     0.350520000000     0.090512   
C208     C      0.663340000000     0.075920000000     0.850520000000     0.090512   
C209     C      0.685700000000     0.069950000000     0.372000000000     0.0132394  
C209     C      0.685700000000     0.069950000000     0.872000000000     0.0132394  
H133     H      0.700330000000     0.089970000000     0.385785000000    -0.128002   
H133     H      0.700330000000     0.089970000000     0.885785000000    -0.128002   
C210     C      0.686840000000     0.035450000000     0.373385000000     0.0761929  
C210     C      0.686840000000     0.035450000000     0.873385000000     0.0761929  
C211     C      0.665680000000     0.005740000000     0.352015000000     0.0159767  
C211     C      0.665680000000     0.005740000000     0.852015000000     0.0159767  
H134     H      0.666830000000     0.982470000000     0.352085000000    -0.175441   
H134     H      0.666830000000     0.982470000000     0.852085000000    -0.175441   
C212     C      0.643420000000     0.011560000000     0.331110000000     0.0976469  
C212     C      0.643420000000     0.011560000000     0.831110000000     0.0976469  
C213     C      0.641630000000     0.045640000000     0.330485000000     0.0572072  
C213     C      0.641630000000     0.045640000000     0.830485000000     0.0572072  
H135     H      0.625630000000     0.048470000000     0.316435000000    -0.0473114  
H135     H      0.625630000000     0.048470000000     0.816435000000    -0.0473114  
C214     C      0.841100000000     0.269070000000     0.357590000000     0.0517663  
C214     C      0.841100000000     0.269070000000     0.857590000000     0.0517663  
C215     C      0.620380000000     0.979980000000     0.307940000000    -0.0905839  
C215     C      0.620380000000     0.979980000000     0.807940000000    -0.0905839  
C216     C      0.710220000000     0.029750000000     0.398060000000     0.0175088  
C216     C      0.710220000000     0.029750000000     0.898060000000     0.0175088  
N9       N      0.662600000000     0.112060000000     0.349830000000     0.0235153  
N9       N      0.662600000000     0.112060000000     0.849830000000     0.0235153  
Mn19     Mn     0.261760000000     0.336080000000     0.296180000000    -0.0776054  
Mn19     Mn     0.261760000000     0.336080000000     0.796180000000    -0.0776054  
Mn20     Mn     0.344370000000     0.419990000000     0.266890000000    -0.0575074  
Mn20     Mn     0.344370000000     0.419990000000     0.766890000000    -0.0575074  
O73      O      0.080100000000     0.605390000000     0.248810000000     0.0655243  
O73      O      0.080100000000     0.605390000000     0.748810000000     0.0655243  
O74      O      0.102430000000     0.626520000000     0.294850000000     0.306302   
O74      O      0.102430000000     0.626520000000     0.794850000000     0.306302   
O75      O      0.053010000000     0.316580000000     0.207385000000     0.321174   
O75      O      0.053010000000     0.316580000000     0.707385000000     0.321174   
O76      O      0.991550000000     0.283180000000     0.222800000000     0.375916   
O76      O      0.991550000000     0.283180000000     0.722800000000     0.375916   
O77      O      0.952820000000     0.332180000000     0.314715000000    -0.0779174  
O77      O      0.952820000000     0.332180000000     0.814715000000    -0.0779174  
O78      O      0.997880000000     0.389620000000     0.333945000000     0.730805   
O78      O      0.997880000000     0.389620000000     0.833945000000     0.730805   
O79      O      0.295720000000     0.428160000000     0.255190000000     0.930921   
O79      O      0.295720000000     0.428160000000     0.755190000000     0.930921   
O80      O      0.257430000000     0.387320000000     0.291825000000    -0.324596   
O80      O      0.257430000000     0.387320000000     0.791825000000    -0.324596   
C217     C      0.264840000000     0.411540000000     0.271335000000    -0.323874   
C217     C      0.264840000000     0.411540000000     0.771335000000    -0.323874   
C218     C      0.233860000000     0.422460000000     0.263165000000    -0.323741   
C218     C      0.233860000000     0.422460000000     0.763165000000    -0.323741   
C219     C      0.236840000000     0.444180000000     0.236820000000    -0.413456   
C219     C      0.236840000000     0.444180000000     0.736820000000    -0.413456   
H136     H      0.258100000000     0.452200000000     0.223750000000    -0.384613   
H136     H      0.258100000000     0.452200000000     0.723750000000    -0.384613   
C220     C      0.207290000000     0.453000000000     0.231170000000    -0.401964   
C220     C      0.207290000000     0.453000000000     0.731170000000    -0.401964   
H137     H      0.208900000000     0.467100000000     0.213900000000    -0.375398   
H137     H      0.208900000000     0.467100000000     0.713900000000    -0.375398   
C221     C      0.175720000000     0.441820000000     0.249925000000    -0.404163   
C221     C      0.175720000000     0.441820000000     0.749925000000    -0.404163   
C222     C      0.173420000000     0.420730000000     0.274685000000     0.3942     
C222     C      0.173420000000     0.420730000000     0.774685000000     0.3942     
H138     H      0.152100000000     0.413000000000     0.287600000000    -0.168169   
H138     H      0.152100000000     0.413000000000     0.787600000000    -0.168169   
C223     C      0.201630000000     0.410160000000     0.281595000000     0.110694   
C223     C      0.201630000000     0.410160000000     0.781595000000     0.110694   
H139     H      0.198700000000     0.394900000000     0.298500000000     0.00571844 
H139     H      0.198700000000     0.394900000000     0.798500000000     0.00571844 
C224     C      0.144370000000     0.453400000000     0.243245000000    -0.210536   
C224     C      0.144370000000     0.453400000000     0.743245000000    -0.210536   
H140     H      0.130200000000     0.439500000000     0.225300000000     0.101246   
H140     H      0.130200000000     0.439500000000     0.725300000000     0.101246   
H141     H      0.157800000000     0.481500000000     0.238850000000     0.172131   
H141     H      0.157800000000     0.481500000000     0.738850000000     0.172131   
C225     C      0.127320000000     0.473460000000     0.289815000000    -0.211548   
C225     C      0.127320000000     0.473460000000     0.789815000000    -0.211548   
H142     H      0.114500000000     0.459400000000     0.308050000000     0.110452   
H142     H      0.114500000000     0.459400000000     0.808050000000     0.110452   
H143     H      0.155600000000     0.485200000000     0.292850000000     0.113606   
H143     H      0.155600000000     0.485200000000     0.792850000000     0.113606   
C226     C      0.118480000000     0.506100000000     0.285955000000    -0.00349599 
C226     C      0.118480000000     0.506100000000     0.785955000000    -0.00349599 
C227     C      0.126860000000     0.533750000000     0.307320000000    -0.191023   
C227     C      0.126860000000     0.533750000000     0.807320000000    -0.191023   
H144     H      0.137700000000     0.531900000000     0.325400000000     0.088866   
H144     H      0.137700000000     0.531900000000     0.825400000000     0.088866   
C228     C      0.119590000000     0.564820000000     0.302890000000     0.0898909  
C228     C      0.119590000000     0.564820000000     0.802890000000     0.0898909  
H145     H      0.126500000000     0.583700000000     0.317900000000    -0.182061   
H145     H      0.126500000000     0.583700000000     0.817900000000    -0.182061   
C229     C      0.103250000000     0.568430000000     0.278055000000     0.0791123  
C229     C      0.103250000000     0.568430000000     0.778055000000     0.0791123  
C230     C      0.093370000000     0.541180000000     0.255250000000     0.0875437  
C230     C      0.093370000000     0.541180000000     0.755250000000     0.0875437  
H146     H      0.081800000000     0.543200000000     0.237550000000     0.149821   
H146     H      0.081800000000     0.543200000000     0.737550000000     0.149821   
C231     C      0.101430000000     0.510620000000     0.259835000000    -0.196022   
C231     C      0.101430000000     0.510620000000     0.759835000000    -0.196022   
H147     H      0.095100000000     0.492100000000     0.244600000000     0.091558   
H147     H      0.095100000000     0.492100000000     0.744600000000     0.091558   
C232     C      0.079240000000     0.409250000000     0.267185000000     0.0905347  
C232     C      0.079240000000     0.409250000000     0.767185000000     0.0905347  
C233     C      0.050910000000     0.403280000000     0.288665000000     0.0132282  
C233     C      0.050910000000     0.403280000000     0.788665000000     0.0132282  
H148     H      0.056300000000     0.423300000000     0.302450000000    -0.128024   
H148     H      0.056300000000     0.423300000000     0.802450000000    -0.128024   
C234     C      0.015270000000     0.368780000000     0.290050000000     0.0762125  
C234     C      0.015270000000     0.368780000000     0.790050000000     0.0762125  
C235     C      0.006720000000     0.339070000000     0.268680000000     0.0159731  
C235     C      0.006720000000     0.339070000000     0.768680000000     0.0159731  
H149     H      0.982300000000     0.315800000000     0.268750000000    -0.175454   
H149     H      0.982300000000     0.315800000000     0.768750000000    -0.175454   
C236     C      0.034800000000     0.344890000000     0.247775000000     0.0976556  
C236     C      0.034800000000     0.344890000000     0.747775000000     0.0976556  
C237     C      0.070670000000     0.378970000000     0.247150000000     0.0571864  
C237     C      0.070670000000     0.378970000000     0.747150000000     0.0571864  
H150     H      0.089500000000     0.381800000000     0.233100000000    -0.0472947  
H150     H      0.089500000000     0.381800000000     0.733100000000    -0.0472947  
C238     C      0.094630000000     0.602400000000     0.274255000000     0.0517737  
C238     C      0.094630000000     0.602400000000     0.774255000000     0.0517737  
C239     C      0.026260000000     0.313310000000     0.224605000000    -0.0905777  
C239     C      0.026260000000     0.313310000000     0.724605000000    -0.0905777  
C240     C      0.986190000000     0.363080000000     0.314725000000     0.0176639  
C240     C      0.986190000000     0.363080000000     0.814725000000     0.0176639  
N10      N      0.116120000000     0.445390000000     0.266495000000     0.0234141  
N10      N      0.116120000000     0.445390000000     0.766495000000     0.0234141  
Mn21     Mn     0.928430000000     0.669410000000     0.462845000000    -0.0776855  
Mn21     Mn     0.928430000000     0.669410000000     0.962845000000    -0.0776855  
Mn22     Mn     0.011030000000     0.753330000000     0.433560000000    -0.0574549  
Mn22     Mn     0.011030000000     0.753330000000     0.933560000000    -0.0574549  
O81      O      0.746770000000     0.938720000000     0.415475000000     0.0655088  
O81      O      0.746770000000     0.938720000000     0.915475000000     0.0655088  
O82      O      0.769100000000     0.959850000000     0.461515000000     0.30632    
O82      O      0.769100000000     0.959850000000     0.961515000000     0.30632    
O83      O      0.719680000000     0.649910000000     0.374050000000     0.321275   
O83      O      0.719680000000     0.649910000000     0.874050000000     0.321275   
O84      O      0.658220000000     0.616510000000     0.389465000000     0.375866   
O84      O      0.658220000000     0.616510000000     0.889465000000     0.375866   
O85      O      0.619490000000     0.665510000000     0.481380000000    -0.0779106  
O85      O      0.619490000000     0.665510000000     0.981380000000    -0.0779106  
O86      O      0.664550000000     0.722950000000     0.000610000000     0.730778   
O86      O      0.664550000000     0.722950000000     0.500610000000     0.730778   
O87      O      0.962390000000     0.761490000000     0.421855000000     0.930849   
O87      O      0.962390000000     0.761490000000     0.921855000000     0.930849   
O88      O      0.924100000000     0.720650000000     0.458490000000    -0.324685   
O88      O      0.924100000000     0.720650000000     0.958490000000    -0.324685   
C241     C      0.931510000000     0.744870000000     0.438000000000    -0.323914   
C241     C      0.931510000000     0.744870000000     0.938000000000    -0.323914   
C242     C      0.900530000000     0.755790000000     0.429830000000    -0.323733   
C242     C      0.900530000000     0.755790000000     0.929830000000    -0.323733   
C243     C      0.903510000000     0.777510000000     0.403485000000    -0.413382   
C243     C      0.903510000000     0.777510000000     0.903485000000    -0.413382   
H151     H      0.924770000000     0.785530000000     0.390415000000    -0.384675   
H151     H      0.924770000000     0.785530000000     0.890415000000    -0.384675   
C244     C      0.873960000000     0.786330000000     0.397835000000    -0.402048   
C244     C      0.873960000000     0.786330000000     0.897835000000    -0.402048   
H152     H      0.875570000000     0.800430000000     0.380565000000    -0.375324   
H152     H      0.875570000000     0.800430000000     0.880565000000    -0.375324   
C245     C      0.842390000000     0.775150000000     0.416590000000    -0.404118   
C245     C      0.842390000000     0.775150000000     0.916590000000    -0.404118   
C246     C      0.840090000000     0.754060000000     0.441350000000     0.39415    
C246     C      0.840090000000     0.754060000000     0.941350000000     0.39415    
H153     H      0.818770000000     0.746330000000     0.454265000000    -0.168147   
H153     H      0.818770000000     0.746330000000     0.954265000000    -0.168147   
C247     C      0.868300000000     0.743490000000     0.448260000000     0.110679   
C247     C      0.868300000000     0.743490000000     0.948260000000     0.110679   
H154     H      0.865370000000     0.728230000000     0.465165000000     0.00571616 
H154     H      0.865370000000     0.728230000000     0.965165000000     0.00571616 
C248     C      0.811040000000     0.786730000000     0.409910000000    -0.210525   
C248     C      0.811040000000     0.786730000000     0.909910000000    -0.210525   
H155     H      0.796870000000     0.772830000000     0.391965000000     0.10124    
H155     H      0.796870000000     0.772830000000     0.891965000000     0.10124    
H156     H      0.824470000000     0.814830000000     0.405515000000     0.172124   
H156     H      0.824470000000     0.814830000000     0.905515000000     0.172124   
C249     C      0.793990000000     0.806790000000     0.456480000000    -0.211533   
C249     C      0.793990000000     0.806790000000     0.956480000000    -0.211533   
H157     H      0.781170000000     0.792730000000     0.474715000000     0.110451   
H157     H      0.781170000000     0.792730000000     0.974715000000     0.110451   
H158     H      0.822270000000     0.818530000000     0.459515000000     0.113592   
H158     H      0.822270000000     0.818530000000     0.959515000000     0.113592   
C250     C      0.785150000000     0.839430000000     0.452620000000    -0.00348038 
C250     C      0.785150000000     0.839430000000     0.952620000000    -0.00348038 
C251     C      0.793530000000     0.867080000000     0.473985000000    -0.19102    
C251     C      0.793530000000     0.867080000000     0.973985000000    -0.19102    
H159     H      0.804370000000     0.865230000000     0.492065000000     0.0888692  
H159     H      0.804370000000     0.865230000000     0.992065000000     0.0888692  
C252     C      0.786260000000     0.898150000000     0.469555000000     0.0898894  
C252     C      0.786260000000     0.898150000000     0.969555000000     0.0898894  
H160     H      0.793170000000     0.917030000000     0.484565000000    -0.182054   
H160     H      0.793170000000     0.917030000000     0.984565000000    -0.182054   
C253     C      0.769920000000     0.901760000000     0.444720000000     0.0791102  
C253     C      0.769920000000     0.901760000000     0.944720000000     0.0791102  
C254     C      0.760040000000     0.874510000000     0.421915000000     0.0875406  
C254     C      0.760040000000     0.874510000000     0.921915000000     0.0875406  
H161     H      0.748470000000     0.876530000000     0.404215000000     0.149809   
H161     H      0.748470000000     0.876530000000     0.904215000000     0.149809   
C255     C      0.768100000000     0.843950000000     0.426500000000    -0.196004   
C255     C      0.768100000000     0.843950000000     0.926500000000    -0.196004   
H162     H      0.761770000000     0.825430000000     0.411265000000     0.0915529  
H162     H      0.761770000000     0.825430000000     0.911265000000     0.0915529  
C256     C      0.745910000000     0.742580000000     0.433850000000     0.0905139  
C256     C      0.745910000000     0.742580000000     0.933850000000     0.0905139  
C257     C      0.717580000000     0.736610000000     0.455330000000     0.0132424  
C257     C      0.717580000000     0.736610000000     0.955330000000     0.0132424  
H163     H      0.722970000000     0.756630000000     0.469115000000    -0.127996   
H163     H      0.722970000000     0.756630000000     0.969115000000    -0.127996   
C258     C      0.681940000000     0.702110000000     0.456715000000     0.0761961  
C258     C      0.681940000000     0.702110000000     0.956715000000     0.0761961  
C259     C      0.673390000000     0.672400000000     0.435345000000     0.015984   
C259     C      0.673390000000     0.672400000000     0.935345000000     0.015984   
H164     H      0.648970000000     0.649130000000     0.435415000000    -0.175439   
H164     H      0.648970000000     0.649130000000     0.935415000000    -0.175439   
C260     C      0.701470000000     0.678220000000     0.414440000000     0.0976528  
C260     C      0.701470000000     0.678220000000     0.914440000000     0.0976528  
C261     C      0.737340000000     0.712300000000     0.413815000000     0.0571644  
C261     C      0.737340000000     0.712300000000     0.913815000000     0.0571644  
H165     H      0.756170000000     0.715130000000     0.399765000000    -0.0472389  
H165     H      0.756170000000     0.715130000000     0.899765000000    -0.0472389  
C262     C      0.761300000000     0.935730000000     0.440920000000     0.0517545  
C262     C      0.761300000000     0.935730000000     0.940920000000     0.0517545  
C263     C      0.692930000000     0.646640000000     0.391270000000    -0.0906595  
C263     C      0.692930000000     0.646640000000     0.891270000000    -0.0906595  
C264     C      0.652860000000     0.696410000000     0.481390000000     0.0178243  
C264     C      0.652860000000     0.696410000000     0.981390000000     0.0178243  
N11      N      0.782790000000     0.778720000000     0.433160000000     0.0233302  
N11      N      0.782790000000     0.778720000000     0.933160000000     0.0233302  
Mn23     Mn     0.595100000000     0.002750000000     0.129515000000    -0.0776838  
Mn23     Mn     0.595100000000     0.002750000000     0.629515000000    -0.0776838  
Mn24     Mn     0.677700000000     0.086660000000     0.100225000000    -0.0574324  
Mn24     Mn     0.677700000000     0.086660000000     0.600225000000    -0.0574324  
O89      O      0.413430000000     0.272060000000     0.082145000000     0.0655147  
O89      O      0.413430000000     0.272060000000     0.582145000000     0.0655147  
O90      O      0.435760000000     0.293190000000     0.128185000000     0.306306   
O90      O      0.435760000000     0.293190000000     0.628185000000     0.306306   
O91      O      0.386340000000     0.983250000000     0.040720000000     0.321237   
O91      O      0.386340000000     0.983250000000     0.540720000000     0.321237   
O92      O      0.324880000000     0.949850000000     0.056135000000     0.376006   
O92      O      0.324880000000     0.949850000000     0.556135000000     0.376006   
O93      O      0.286150000000     0.998850000000     0.148050000000    -0.0779077  
O93      O      0.286150000000     0.998850000000     0.648050000000    -0.0779077  
O94      O      0.331210000000     0.056290000000     0.167280000000     0.730733   
O94      O      0.331210000000     0.056290000000     0.667280000000     0.730733   
O95      O      0.629050000000     0.094830000000     0.088525000000     0.930909   
O95      O      0.629050000000     0.094830000000     0.588525000000     0.930909   
O96      O      0.590760000000     0.053990000000     0.125160000000    -0.324642   
O96      O      0.590760000000     0.053990000000     0.625160000000    -0.324642   
C265     C      0.598170000000     0.078210000000     0.104670000000    -0.323883   
C265     C      0.598170000000     0.078210000000     0.604670000000    -0.323883   
C266     C      0.567190000000     0.089130000000     0.096500000000    -0.32369    
C266     C      0.567190000000     0.089130000000     0.596500000000    -0.32369    
C267     C      0.570170000000     0.110850000000     0.070155000000    -0.413343   
C267     C      0.570170000000     0.110850000000     0.570155000000    -0.413343   
H166     H      0.591430000000     0.118870000000     0.057085000000    -0.384612   
H166     H      0.591430000000     0.118870000000     0.557085000000    -0.384612   
C268     C      0.540620000000     0.119670000000     0.064505000000    -0.401983   
C268     C      0.540620000000     0.119670000000     0.564505000000    -0.401983   
H167     H      0.542230000000     0.133770000000     0.047235000000    -0.375376   
H167     H      0.542230000000     0.133770000000     0.547235000000    -0.375376   
C269     C      0.509050000000     0.108490000000     0.083260000000    -0.40416    
C269     C      0.509050000000     0.108490000000     0.583260000000    -0.40416    
C270     C      0.506750000000     0.087400000000     0.108020000000     0.394187   
C270     C      0.506750000000     0.087400000000     0.608020000000     0.394187   
H168     H      0.485430000000     0.079670000000     0.120935000000    -0.168173   
H168     H      0.485430000000     0.079670000000     0.620935000000    -0.168173   
C271     C      0.534960000000     0.076830000000     0.114930000000     0.110692   
C271     C      0.534960000000     0.076830000000     0.614930000000     0.110692   
H169     H      0.532030000000     0.061570000000     0.131835000000     0.00570773 
H169     H      0.532030000000     0.061570000000     0.631835000000     0.00570773 
C272     C      0.477700000000     0.120070000000     0.076580000000    -0.210538   
C272     C      0.477700000000     0.120070000000     0.576580000000    -0.210538   
H170     H      0.463530000000     0.106170000000     0.058635000000     0.101242   
H170     H      0.463530000000     0.106170000000     0.558635000000     0.101242   
H171     H      0.491130000000     0.148170000000     0.072185000000     0.172128   
H171     H      0.491130000000     0.148170000000     0.572185000000     0.172128   
C273     C      0.460650000000     0.140130000000     0.123150000000    -0.211549   
C273     C      0.460650000000     0.140130000000     0.623150000000    -0.211549   
H172     H      0.447830000000     0.126070000000     0.141385000000     0.110449   
H172     H      0.447830000000     0.126070000000     0.641385000000     0.110449   
H173     H      0.488930000000     0.151870000000     0.126185000000     0.113605   
H173     H      0.488930000000     0.151870000000     0.626185000000     0.113605   
C274     C      0.451810000000     0.172770000000     0.119290000000    -0.00349923 
C274     C      0.451810000000     0.172770000000     0.619290000000    -0.00349923 
C275     C      0.460190000000     0.200420000000     0.140655000000    -0.191019   
C275     C      0.460190000000     0.200420000000     0.640655000000    -0.191019   
H174     H      0.471030000000     0.198570000000     0.158735000000     0.088862   
H174     H      0.471030000000     0.198570000000     0.658735000000     0.088862   
C276     C      0.452920000000     0.231490000000     0.136225000000     0.0898886  
C276     C      0.452920000000     0.231490000000     0.636225000000     0.0898886  
H175     H      0.459830000000     0.250370000000     0.151235000000    -0.18205    
H175     H      0.459830000000     0.250370000000     0.651235000000    -0.18205    
C277     C      0.436580000000     0.235100000000     0.111390000000     0.0791039  
C277     C      0.436580000000     0.235100000000     0.611390000000     0.0791039  
C278     C      0.426700000000     0.207850000000     0.088585000000     0.0875391  
C278     C      0.426700000000     0.207850000000     0.588585000000     0.0875391  
H176     H      0.415130000000     0.209870000000     0.070885000000     0.149808   
H176     H      0.415130000000     0.209870000000     0.570885000000     0.149808   
C279     C      0.434760000000     0.177290000000     0.093170000000    -0.196011   
C279     C      0.434760000000     0.177290000000     0.593170000000    -0.196011   
H177     H      0.428430000000     0.158770000000     0.077935000000     0.0915521  
H177     H      0.428430000000     0.158770000000     0.577935000000     0.0915521  
C280     C      0.412570000000     0.075920000000     0.100520000000     0.0905206  
C280     C      0.412570000000     0.075920000000     0.600520000000     0.0905206  
C281     C      0.384240000000     0.069950000000     0.122000000000     0.0132357  
C281     C      0.384240000000     0.069950000000     0.622000000000     0.0132357  
H178     H      0.389630000000     0.089970000000     0.135785000000    -0.128012   
H178     H      0.389630000000     0.089970000000     0.635785000000    -0.128012   
C282     C      0.348600000000     0.035450000000     0.123385000000     0.0762004  
C282     C      0.348600000000     0.035450000000     0.623385000000     0.0762004  
C283     C      0.340050000000     0.005740000000     0.102015000000     0.015973   
C283     C      0.340050000000     0.005740000000     0.602015000000     0.015973   
H179     H      0.315630000000     0.982470000000     0.102085000000    -0.175446   
H179     H      0.315630000000     0.982470000000     0.602085000000    -0.175446   
C284     C      0.368130000000     0.011560000000     0.081110000000     0.0976484  
C284     C      0.368130000000     0.011560000000     0.581110000000     0.0976484  
C285     C      0.404000000000     0.045640000000     0.080485000000     0.0572042  
C285     C      0.404000000000     0.045640000000     0.580485000000     0.0572042  
H180     H      0.422830000000     0.048470000000     0.066435000000    -0.0473076  
H180     H      0.422830000000     0.048470000000     0.566435000000    -0.0473076  
C286     C      0.427960000000     0.269070000000     0.107590000000     0.0517636  
C286     C      0.427960000000     0.269070000000     0.607590000000     0.0517636  
C287     C      0.359590000000     0.979980000000     0.057940000000    -0.090591   
C287     C      0.359590000000     0.979980000000     0.557940000000    -0.090591   
C288     C      0.319520000000     0.029750000000     0.148060000000     0.0175122  
C288     C      0.319520000000     0.029750000000     0.648060000000     0.0175122  
N12      N      0.449450000000     0.112060000000     0.099830000000     0.023508   
N12      N      0.449450000000     0.112060000000     0.599830000000     0.023508   
Mn25     Mn     0.074320000000     0.738240000000     0.296180000000    -0.0776102  
Mn25     Mn     0.074320000000     0.738240000000     0.796180000000    -0.0776102  
Mn26     Mn     0.075630000000     0.655630000000     0.266890000000    -0.0575053  
Mn26     Mn     0.075630000000     0.655630000000     0.766890000000    -0.0575053  
O97      O      0.525290000000     0.919900000000     0.248810000000     0.0655232  
O97      O      0.525290000000     0.919900000000     0.748810000000     0.0655232  
O98      O      0.524090000000     0.897570000000     0.294850000000     0.306313   
O98      O      0.524090000000     0.897570000000     0.794850000000     0.306313   
O99      O      0.263570000000     0.946990000000     0.207385000000     0.321165   
O99      O      0.263570000000     0.946990000000     0.707385000000     0.321165   
O100     O      0.291630000000     0.008450000000     0.222800000000     0.375923   
O100     O      0.291630000000     0.008450000000     0.722800000000     0.375923   
O101     O      0.379360000000     0.047180000000     0.314715000000    -0.0779164  
O101     O      0.379360000000     0.047180000000     0.814715000000    -0.0779164  
O102     O      0.391740000000     0.002120000000     0.333945000000     0.73079    
O102     O      0.391740000000     0.002120000000     0.833945000000     0.73079    
O103     O      0.132440000000     0.704280000000     0.255190000000     0.930766   
O103     O      0.132440000000     0.704280000000     0.755190000000     0.930766   
O104     O      0.129890000000     0.742570000000     0.291825000000    -0.324697   
O104     O      0.129890000000     0.742570000000     0.791825000000    -0.324697   
C289     C      0.146700000000     0.735160000000     0.271335000000    -0.323938   
C289     C      0.146700000000     0.735160000000     0.771335000000    -0.323938   
C290     C      0.188600000000     0.766140000000     0.263165000000    -0.323727   
C290     C      0.188600000000     0.766140000000     0.763165000000    -0.323727   
C291     C      0.207340000000     0.763160000000     0.236820000000    -0.413447   
C291     C      0.207340000000     0.763160000000     0.736820000000    -0.413447   
H181     H      0.194100000000     0.741900000000     0.223750000000    -0.384632   
H181     H      0.194100000000     0.741900000000     0.723750000000    -0.384632   
C292     C      0.245710000000     0.792710000000     0.231170000000    -0.401992   
C292     C      0.245710000000     0.792710000000     0.731170000000    -0.401992   
H182     H      0.258200000000     0.791100000000     0.213900000000    -0.375302   
H182     H      0.258200000000     0.791100000000     0.713900000000    -0.375302   
C293     C      0.266100000000     0.824280000000     0.249925000000    -0.40416    
C293     C      0.266100000000     0.824280000000     0.749925000000    -0.40416    
C294     C      0.247310000000     0.826580000000     0.274685000000     0.394159   
C294     C      0.247310000000     0.826580000000     0.774685000000     0.394159   
H183     H      0.260900000000     0.847900000000     0.287600000000    -0.168159   
H183     H      0.260900000000     0.847900000000     0.787600000000    -0.168159   
C295     C      0.208530000000     0.798370000000     0.281595000000     0.110697   
C295     C      0.208530000000     0.798370000000     0.781595000000     0.110697   
H184     H      0.196200000000     0.801300000000     0.298500000000     0.00572196 
H184     H      0.196200000000     0.801300000000     0.798500000000     0.00572196 
C296     C      0.309030000000     0.855630000000     0.243245000000    -0.210545   
C296     C      0.309030000000     0.855630000000     0.743245000000    -0.210545   
H185     H      0.309300000000     0.869800000000     0.225300000000     0.101259   
H185     H      0.309300000000     0.869800000000     0.725300000000     0.101259   
H186     H      0.323700000000     0.842200000000     0.238850000000     0.172152   
H186     H      0.323700000000     0.842200000000     0.738850000000     0.172152   
C297     C      0.346140000000     0.872680000000     0.289815000000    -0.21156    
C297     C      0.346140000000     0.872680000000     0.789815000000    -0.21156    
H187     H      0.344900000000     0.885500000000     0.308050000000     0.110462   
H187     H      0.344900000000     0.885500000000     0.808050000000     0.110462   
H188     H      0.329600000000     0.844400000000     0.292850000000     0.113611   
H188     H      0.329600000000     0.844400000000     0.792850000000     0.113611   
C298     C      0.387620000000     0.881520000000     0.285955000000    -0.00349415 
C298     C      0.387620000000     0.881520000000     0.785955000000    -0.00349415 
C299     C      0.406890000000     0.873140000000     0.307320000000    -0.191062   
C299     C      0.406890000000     0.873140000000     0.807320000000    -0.191062   
H189     H      0.394200000000     0.862300000000     0.325400000000     0.0888876  
H189     H      0.394200000000     0.862300000000     0.825400000000     0.0888876  
C300     C      0.445230000000     0.880410000000     0.302890000000     0.0899245  
C300     C      0.445230000000     0.880410000000     0.802890000000     0.0899245  
H190     H      0.457200000000     0.873500000000     0.317900000000    -0.182307   
H190     H      0.457200000000     0.873500000000     0.817900000000    -0.182307   
C301     C      0.465180000000     0.896750000000     0.278055000000     0.0791666  
C301     C      0.465180000000     0.896750000000     0.778055000000     0.0791666  
C302     C      0.447810000000     0.906630000000     0.255250000000     0.0876628  
C302     C      0.447810000000     0.906630000000     0.755250000000     0.0876628  
H191     H      0.461400000000     0.918200000000     0.237550000000     0.149911   
H191     H      0.461400000000     0.918200000000     0.737550000000     0.149911   
C303     C      0.409190000000     0.898570000000     0.259835000000    -0.196093   
C303     C      0.409190000000     0.898570000000     0.759835000000    -0.196093   
H192     H      0.397000000000     0.904900000000     0.244600000000     0.0915768  
H192     H      0.397000000000     0.904900000000     0.744600000000     0.0915768  
C304     C      0.330010000000     0.920760000000     0.267185000000     0.0905769  
C304     C      0.330010000000     0.920760000000     0.767185000000     0.0905769  
C305     C      0.352370000000     0.949090000000     0.288665000000     0.0132205  
C305     C      0.352370000000     0.949090000000     0.788665000000     0.0132205  
H193     H      0.367000000000     0.943700000000     0.302450000000    -0.128041   
H193     H      0.367000000000     0.943700000000     0.802450000000    -0.128041   
C306     C      0.353510000000     0.984730000000     0.290050000000     0.0762497  
C306     C      0.353510000000     0.984730000000     0.790050000000     0.0762497  
C307     C      0.332350000000     0.993280000000     0.268680000000     0.0159618  
C307     C      0.332350000000     0.993280000000     0.768680000000     0.0159618  
H194     H      0.333500000000     0.017700000000     0.268750000000    -0.175519   
H194     H      0.333500000000     0.017700000000     0.768750000000    -0.175519   
C308     C      0.310090000000     0.965200000000     0.247775000000     0.0976648  
C308     C      0.310090000000     0.965200000000     0.747775000000     0.0976648  
C309     C      0.308300000000     0.929330000000     0.247150000000     0.0572089  
C309     C      0.308300000000     0.929330000000     0.747150000000     0.0572089  
H195     H      0.292300000000     0.910500000000     0.233100000000    -0.0473019  
H195     H      0.292300000000     0.910500000000     0.733100000000    -0.0473019  
C310     C      0.507770000000     0.905370000000     0.274255000000     0.0517694  
C310     C      0.507770000000     0.905370000000     0.774255000000     0.0517694  
C311     C      0.287050000000     0.973740000000     0.224605000000    -0.0907235  
C311     C      0.287050000000     0.973740000000     0.724605000000    -0.0907235  
C312     C      0.376890000000     0.013810000000     0.314725000000     0.0179473  
C312     C      0.376890000000     0.013810000000     0.814725000000     0.0179473  
N13      N      0.329270000000     0.883880000000     0.266495000000     0.0232721  
N13      N      0.329270000000     0.883880000000     0.766495000000     0.0232721  
Mn27     Mn     0.740990000000     0.071570000000     0.462845000000    -0.0777937  
Mn27     Mn     0.740990000000     0.071570000000     0.962845000000    -0.0777937  
Mn28     Mn     0.742290000000     0.988970000000     0.433560000000    -0.0573907  
Mn28     Mn     0.742290000000     0.988970000000     0.933560000000    -0.0573907  
O105     O      0.191960000000     0.253230000000     0.415475000000     0.0654893  
O105     O      0.191960000000     0.253230000000     0.915475000000     0.0654893  
O106     O      0.190760000000     0.230900000000     0.461515000000     0.306314   
O106     O      0.190760000000     0.230900000000     0.961515000000     0.306314   
O107     O      0.930240000000     0.280320000000     0.374050000000     0.32133    
O107     O      0.930240000000     0.280320000000     0.874050000000     0.32133    
O108     O      0.958300000000     0.341780000000     0.389465000000     0.375913   
O108     O      0.958300000000     0.341780000000     0.889465000000     0.375913   
O109     O      0.046030000000     0.380510000000     0.481380000000    -0.0778459  
O109     O      0.046030000000     0.380510000000     0.981380000000    -0.0778459  
O110     O      0.058410000000     0.335450000000     0.000610000000     0.730787   
O110     O      0.058410000000     0.335450000000     0.500610000000     0.730787   
O111     O      0.799110000000     0.037610000000     0.421855000000     0.930987   
O111     O      0.799110000000     0.037610000000     0.921855000000     0.930987   
O112     O      0.796560000000     0.075900000000     0.458490000000    -0.324637   
O112     O      0.796560000000     0.075900000000     0.958490000000    -0.324637   
C313     C      0.813370000000     0.068490000000     0.438000000000    -0.323883   
C313     C      0.813370000000     0.068490000000     0.938000000000    -0.323883   
C314     C      0.855270000000     0.099470000000     0.429830000000    -0.323774   
C314     C      0.855270000000     0.099470000000     0.929830000000    -0.323774   
C315     C      0.874010000000     0.096490000000     0.403485000000    -0.413419   
C315     C      0.874010000000     0.096490000000     0.903485000000    -0.413419   
H196     H      0.860770000000     0.075230000000     0.390415000000    -0.384601   
H196     H      0.860770000000     0.075230000000     0.890415000000    -0.384601   
C316     C      0.912380000000     0.126040000000     0.397835000000    -0.401989   
C316     C      0.912380000000     0.126040000000     0.897835000000    -0.401989   
H197     H      0.924870000000     0.124430000000     0.380565000000    -0.37539    
H197     H      0.924870000000     0.124430000000     0.880565000000    -0.37539    
C317     C      0.932770000000     0.157610000000     0.416590000000    -0.404193   
C317     C      0.932770000000     0.157610000000     0.916590000000    -0.404193   
C318     C      0.913980000000     0.159910000000     0.441350000000     0.394205   
C318     C      0.913980000000     0.159910000000     0.941350000000     0.394205   
H198     H      0.927570000000     0.181230000000     0.454265000000    -0.16818    
H198     H      0.927570000000     0.181230000000     0.954265000000    -0.16818    
C319     C      0.875200000000     0.131700000000     0.448260000000     0.110698   
C319     C      0.875200000000     0.131700000000     0.948260000000     0.110698   
H199     H      0.862870000000     0.134630000000     0.465165000000     0.00570546 
H199     H      0.862870000000     0.134630000000     0.965165000000     0.00570546 
C320     C      0.975700000000     0.188960000000     0.409910000000    -0.210543   
C320     C      0.975700000000     0.188960000000     0.909910000000    -0.210543   
H200     H      0.975970000000     0.203130000000     0.391965000000     0.101243   
H200     H      0.975970000000     0.203130000000     0.891965000000     0.101243   
H201     H      0.990370000000     0.175530000000     0.405515000000     0.172133   
H201     H      0.990370000000     0.175530000000     0.905515000000     0.172133   
C321     C      0.012810000000     0.206010000000     0.456480000000    -0.211553   
C321     C      0.012810000000     0.206010000000     0.956480000000    -0.211553   
H202     H      0.011570000000     0.218830000000     0.474715000000     0.110453   
H202     H      0.011570000000     0.218830000000     0.974715000000     0.110453   
H203     H      0.996270000000     0.177730000000     0.459515000000     0.113612   
H203     H      0.996270000000     0.177730000000     0.959515000000     0.113612   
C322     C      0.054290000000     0.214850000000     0.452620000000    -0.00349709 
C322     C      0.054290000000     0.214850000000     0.952620000000    -0.00349709 
C323     C      0.073560000000     0.206470000000     0.473985000000    -0.191023   
C323     C      0.073560000000     0.206470000000     0.973985000000    -0.191023   
H204     H      0.060870000000     0.195630000000     0.492065000000     0.088865   
H204     H      0.060870000000     0.195630000000     0.992065000000     0.088865   
C324     C      0.111900000000     0.213740000000     0.469555000000     0.0898895  
C324     C      0.111900000000     0.213740000000     0.969555000000     0.0898895  
H205     H      0.123870000000     0.206830000000     0.484565000000    -0.182053   
H205     H      0.123870000000     0.206830000000     0.984565000000    -0.182053   
C325     C      0.131850000000     0.230080000000     0.444720000000     0.0791078  
C325     C      0.131850000000     0.230080000000     0.944720000000     0.0791078  
C326     C      0.114480000000     0.239960000000     0.421915000000     0.0875399  
C326     C      0.114480000000     0.239960000000     0.921915000000     0.0875399  
H206     H      0.128070000000     0.251530000000     0.404215000000     0.149809   
H206     H      0.128070000000     0.251530000000     0.904215000000     0.149809   
C327     C      0.075860000000     0.231900000000     0.426500000000    -0.196009   
C327     C      0.075860000000     0.231900000000     0.926500000000    -0.196009   
H207     H      0.063670000000     0.238230000000     0.411265000000     0.0915527  
H207     H      0.063670000000     0.238230000000     0.911265000000     0.0915527  
C328     C      0.996680000000     0.254090000000     0.433850000000     0.0905192  
C328     C      0.996680000000     0.254090000000     0.933850000000     0.0905192  
C329     C      0.019040000000     0.282420000000     0.455330000000     0.0132388  
C329     C      0.019040000000     0.282420000000     0.955330000000     0.0132388  
H208     H      0.033670000000     0.277030000000     0.469115000000    -0.128007   
H208     H      0.033670000000     0.277030000000     0.969115000000    -0.128007   
C330     C      0.020180000000     0.318060000000     0.456715000000     0.0762     
C330     C      0.020180000000     0.318060000000     0.956715000000     0.0762     
C331     C      0.999020000000     0.326610000000     0.435345000000     0.0159805  
C331     C      0.999020000000     0.326610000000     0.935345000000     0.0159805  
H209     H      0.000170000000     0.351030000000     0.435415000000    -0.175443   
H209     H      0.000170000000     0.351030000000     0.935415000000    -0.175443   
C332     C      0.976760000000     0.298530000000     0.414440000000     0.0976519  
C332     C      0.976760000000     0.298530000000     0.914440000000     0.0976519  
C333     C      0.974970000000     0.262660000000     0.413815000000     0.057186   
C333     C      0.974970000000     0.262660000000     0.913815000000     0.057186   
H210     H      0.958970000000     0.243830000000     0.399765000000    -0.0472912  
H210     H      0.958970000000     0.243830000000     0.899765000000    -0.0472912  
C334     C      0.174440000000     0.238700000000     0.440920000000     0.0517694  
C334     C      0.174440000000     0.238700000000     0.940920000000     0.0517694  
C335     C      0.953720000000     0.307070000000     0.391270000000    -0.0905796  
C335     C      0.953720000000     0.307070000000     0.891270000000    -0.0905796  
C336     C      0.043560000000     0.347140000000     0.481390000000     0.0176625  
C336     C      0.043560000000     0.347140000000     0.981390000000     0.0176625  
N14      N      0.995940000000     0.217210000000     0.433160000000     0.0234225  
N14      N      0.995940000000     0.217210000000     0.933160000000     0.0234225  
Mn29     Mn     0.407650000000     0.404900000000     0.129515000000    -0.0776807  
Mn29     Mn     0.407650000000     0.404900000000     0.629515000000    -0.0776807  
Mn30     Mn     0.408960000000     0.322300000000     0.100225000000    -0.0574558  
Mn30     Mn     0.408960000000     0.322300000000     0.600225000000    -0.0574558  
O113     O      0.858620000000     0.586570000000     0.082145000000     0.0655091  
O113     O      0.858620000000     0.586570000000     0.582145000000     0.0655091  
O114     O      0.857420000000     0.564240000000     0.128185000000     0.306312   
O114     O      0.857420000000     0.564240000000     0.628185000000     0.306312   
O115     O      0.596900000000     0.613660000000     0.040720000000     0.321271   
O115     O      0.596900000000     0.613660000000     0.540720000000     0.321271   
O116     O      0.624960000000     0.675120000000     0.056135000000     0.375882   
O116     O      0.624960000000     0.675120000000     0.556135000000     0.375882   
O117     O      0.712690000000     0.713850000000     0.148050000000    -0.0779117  
O117     O      0.712690000000     0.713850000000     0.648050000000    -0.0779117  
O118     O      0.725070000000     0.668790000000     0.167280000000     0.730679   
O118     O      0.725070000000     0.668790000000     0.667280000000     0.730679   
O119     O      0.465770000000     0.370950000000     0.088525000000     0.930869   
O119     O      0.465770000000     0.370950000000     0.588525000000     0.930869   
O120     O      0.463220000000     0.409240000000     0.125160000000    -0.324659   
O120     O      0.463220000000     0.409240000000     0.625160000000    -0.324659   
C337     C      0.480030000000     0.401830000000     0.104670000000    -0.323872   
C337     C      0.480030000000     0.401830000000     0.604670000000    -0.323872   
C338     C      0.521930000000     0.432810000000     0.096500000000    -0.323751   
C338     C      0.521930000000     0.432810000000     0.596500000000    -0.323751   
C339     C      0.540670000000     0.429830000000     0.070155000000    -0.413371   
C339     C      0.540670000000     0.429830000000     0.570155000000    -0.413371   
H211     H      0.527430000000     0.408570000000     0.057085000000    -0.38461    
H211     H      0.527430000000     0.408570000000     0.557085000000    -0.38461    
C340     C      0.579040000000     0.459380000000     0.064505000000    -0.401989   
C340     C      0.579040000000     0.459380000000     0.564505000000    -0.401989   
H212     H      0.591530000000     0.457770000000     0.047235000000    -0.375399   
H212     H      0.591530000000     0.457770000000     0.547235000000    -0.375399   
C341     C      0.599430000000     0.490950000000     0.083260000000    -0.404165   
C341     C      0.599430000000     0.490950000000     0.583260000000    -0.404165   
C342     C      0.580640000000     0.493250000000     0.108020000000     0.394186   
C342     C      0.580640000000     0.493250000000     0.608020000000     0.394186   
H213     H      0.594230000000     0.514570000000     0.120935000000    -0.168171   
H213     H      0.594230000000     0.514570000000     0.620935000000    -0.168171   
C343     C      0.541860000000     0.465040000000     0.114930000000     0.110693   
C343     C      0.541860000000     0.465040000000     0.614930000000     0.110693   
H214     H      0.529530000000     0.467970000000     0.131835000000     0.00570884 
H214     H      0.529530000000     0.467970000000     0.631835000000     0.00570884 
C344     C      0.642360000000     0.522300000000     0.076580000000    -0.210539   
C344     C      0.642360000000     0.522300000000     0.576580000000    -0.210539   
H215     H      0.642630000000     0.536470000000     0.058635000000     0.101244   
H215     H      0.642630000000     0.536470000000     0.558635000000     0.101244   
H216     H      0.657030000000     0.508870000000     0.072185000000     0.172131   
H216     H      0.657030000000     0.508870000000     0.572185000000     0.172131   
C345     C      0.679470000000     0.539350000000     0.123150000000    -0.21155    
C345     C      0.679470000000     0.539350000000     0.623150000000    -0.21155    
H217     H      0.678230000000     0.552170000000     0.141385000000     0.110451   
H217     H      0.678230000000     0.552170000000     0.641385000000     0.110451   
H218     H      0.662930000000     0.511070000000     0.126185000000     0.113605   
H218     H      0.662930000000     0.511070000000     0.626185000000     0.113605   
C346     C      0.720950000000     0.548190000000     0.119290000000    -0.00349714 
C346     C      0.720950000000     0.548190000000     0.619290000000    -0.00349714 
C347     C      0.740220000000     0.539810000000     0.140655000000    -0.191023   
C347     C      0.740220000000     0.539810000000     0.640655000000    -0.191023   
H219     H      0.727530000000     0.528970000000     0.158735000000     0.0888663  
H219     H      0.727530000000     0.528970000000     0.658735000000     0.0888663  
C348     C      0.778560000000     0.547080000000     0.136225000000     0.089891   
C348     C      0.778560000000     0.547080000000     0.636225000000     0.089891   
H220     H      0.790530000000     0.540170000000     0.151235000000    -0.182053   
H220     H      0.790530000000     0.540170000000     0.651235000000    -0.182053   
C349     C      0.798510000000     0.563420000000     0.111390000000     0.0791096  
C349     C      0.798510000000     0.563420000000     0.611390000000     0.0791096  
C350     C      0.781140000000     0.573300000000     0.088585000000     0.0875408  
C350     C      0.781140000000     0.573300000000     0.588585000000     0.0875408  
H221     H      0.794730000000     0.584870000000     0.070885000000     0.149811   
H221     H      0.794730000000     0.584870000000     0.570885000000     0.149811   
C351     C      0.742520000000     0.565240000000     0.093170000000    -0.196006   
C351     C      0.742520000000     0.565240000000     0.593170000000    -0.196006   
H222     H      0.730330000000     0.571570000000     0.077935000000     0.0915549  
H222     H      0.730330000000     0.571570000000     0.577935000000     0.0915549  
C352     C      0.663340000000     0.587430000000     0.100520000000     0.0905189  
C352     C      0.663340000000     0.587430000000     0.600520000000     0.0905189  
C353     C      0.685700000000     0.615760000000     0.122000000000     0.0132412  
C353     C      0.685700000000     0.615760000000     0.622000000000     0.0132412  
H223     H      0.700330000000     0.610370000000     0.135785000000    -0.128002   
H223     H      0.700330000000     0.610370000000     0.635785000000    -0.128002   
C354     C      0.686840000000     0.651400000000     0.123385000000     0.0761997  
C354     C      0.686840000000     0.651400000000     0.623385000000     0.0761997  
C355     C      0.665680000000     0.659950000000     0.102015000000     0.0159819  
C355     C      0.665680000000     0.659950000000     0.602015000000     0.0159819  
H224     H      0.666830000000     0.684370000000     0.102085000000    -0.175441   
H224     H      0.666830000000     0.684370000000     0.602085000000    -0.175441   
C356     C      0.643420000000     0.631870000000     0.081110000000     0.0976529  
C356     C      0.643420000000     0.631870000000     0.581110000000     0.0976529  
C357     C      0.641630000000     0.596000000000     0.080485000000     0.0571927  
C357     C      0.641630000000     0.596000000000     0.580485000000     0.0571927  
H225     H      0.625630000000     0.577170000000     0.066435000000    -0.0473004  
H225     H      0.625630000000     0.577170000000     0.566435000000    -0.0473004  
C358     C      0.841100000000     0.572040000000     0.107590000000     0.0517769  
C358     C      0.841100000000     0.572040000000     0.607590000000     0.0517769  
C359     C      0.620380000000     0.640410000000     0.057940000000    -0.0905712  
C359     C      0.620380000000     0.640410000000     0.557940000000    -0.0905712  
C360     C      0.710220000000     0.680480000000     0.148060000000     0.0176514  
C360     C      0.710220000000     0.680480000000     0.648060000000     0.0176514  
N15      N      0.662600000000     0.550550000000     0.099830000000     0.0234292  
N15      N      0.662600000000     0.550550000000     0.599830000000     0.0234292  
Mn31     Mn     0.663920000000     0.925680000000     0.296180000000    -0.077667   
Mn31     Mn     0.663920000000     0.925680000000     0.796180000000    -0.077667   
Mn32     Mn     0.580010000000     0.924370000000     0.266890000000    -0.0574649  
Mn32     Mn     0.580010000000     0.924370000000     0.766890000000    -0.0574649  
O121     O      0.394610000000     0.474710000000     0.248810000000     0.0655124  
O121     O      0.394610000000     0.474710000000     0.748810000000     0.0655124  
O122     O      0.373480000000     0.475910000000     0.294850000000     0.306309   
O122     O      0.373480000000     0.475910000000     0.794850000000     0.306309   
O123     O      0.683420000000     0.736430000000     0.207385000000     0.321253   
O123     O      0.683420000000     0.736430000000     0.707385000000     0.321253   
O124     O      0.716820000000     0.708370000000     0.222800000000     0.375873   
O124     O      0.716820000000     0.708370000000     0.722800000000     0.375873   
O125     O      0.667820000000     0.620640000000     0.314715000000    -0.0779125  
O125     O      0.667820000000     0.620640000000     0.814715000000    -0.0779125  
O126     O      0.610380000000     0.608260000000     0.333945000000     0.730716   
O126     O      0.610380000000     0.608260000000     0.833945000000     0.730716   
O127     O      0.571840000000     0.867560000000     0.255190000000     0.930933   
O127     O      0.571840000000     0.867560000000     0.755190000000     0.930933   
O128     O      0.612680000000     0.870110000000     0.291825000000    -0.324658   
O128     O      0.612680000000     0.870110000000     0.791825000000    -0.324658   
C361     C      0.588460000000     0.853300000000     0.271335000000    -0.32396    
C361     C      0.588460000000     0.853300000000     0.771335000000    -0.32396    
C362     C      0.577540000000     0.811400000000     0.263165000000    -0.323773   
C362     C      0.577540000000     0.811400000000     0.763165000000    -0.323773   
C363     C      0.555820000000     0.792660000000     0.236820000000    -0.413486   
C363     C      0.555820000000     0.792660000000     0.736820000000    -0.413486   
H226     H      0.547800000000     0.805900000000     0.223750000000    -0.384623   
H226     H      0.547800000000     0.805900000000     0.723750000000    -0.384623   
C364     C      0.547000000000     0.754290000000     0.231170000000    -0.40198    
C364     C      0.547000000000     0.754290000000     0.731170000000    -0.40198    
H227     H      0.532900000000     0.741800000000     0.213900000000    -0.375296   
H227     H      0.532900000000     0.741800000000     0.713900000000    -0.375296   
C365     C      0.558180000000     0.733900000000     0.249925000000    -0.404147   
C365     C      0.558180000000     0.733900000000     0.749925000000    -0.404147   
C366     C      0.579270000000     0.752690000000     0.274685000000     0.394162   
C366     C      0.579270000000     0.752690000000     0.774685000000     0.394162   
H228     H      0.587000000000     0.739100000000     0.287600000000    -0.168172   
H228     H      0.587000000000     0.739100000000     0.787600000000    -0.168172   
C367     C      0.589840000000     0.791470000000     0.281595000000     0.110699   
C367     C      0.589840000000     0.791470000000     0.781595000000     0.110699   
H229     H      0.605100000000     0.803800000000     0.298500000000     0.00570694 
H229     H      0.605100000000     0.803800000000     0.798500000000     0.00570694 
C368     C      0.546600000000     0.690970000000     0.243245000000    -0.210551   
C368     C      0.546600000000     0.690970000000     0.743245000000    -0.210551   
H230     H      0.560500000000     0.690700000000     0.225300000000     0.101252   
H230     H      0.560500000000     0.690700000000     0.725300000000     0.101252   
H231     H      0.518500000000     0.676300000000     0.238850000000     0.172151   
H231     H      0.518500000000     0.676300000000     0.738850000000     0.172151   
C369     C      0.526540000000     0.653860000000     0.289815000000    -0.211565   
C369     C      0.526540000000     0.653860000000     0.789815000000    -0.211565   
H232     H      0.540600000000     0.655100000000     0.308050000000     0.110462   
H232     H      0.540600000000     0.655100000000     0.808050000000     0.110462   
H233     H      0.514800000000     0.670400000000     0.292850000000     0.113615   
H233     H      0.514800000000     0.670400000000     0.792850000000     0.113615   
C370     C      0.493900000000     0.612380000000     0.285955000000    -0.00349805 
C370     C      0.493900000000     0.612380000000     0.785955000000    -0.00349805 
C371     C      0.466250000000     0.593110000000     0.307320000000    -0.191059   
C371     C      0.466250000000     0.593110000000     0.807320000000    -0.191059   
H234     H      0.468100000000     0.605800000000     0.325400000000     0.0888851  
H234     H      0.468100000000     0.605800000000     0.825400000000     0.0888851  
C372     C      0.435180000000     0.554770000000     0.302890000000     0.0899174  
C372     C      0.435180000000     0.554770000000     0.802890000000     0.0899174  
H235     H      0.416300000000     0.542800000000     0.317900000000    -0.182301   
H235     H      0.416300000000     0.542800000000     0.817900000000    -0.182301   
C373     C      0.431570000000     0.534820000000     0.278055000000     0.0791616  
C373     C      0.431570000000     0.534820000000     0.778055000000     0.0791616  
C374     C      0.458820000000     0.552190000000     0.255250000000     0.0876544  
C374     C      0.458820000000     0.552190000000     0.755250000000     0.0876544  
H236     H      0.456800000000     0.538600000000     0.237550000000     0.149909   
H236     H      0.456800000000     0.538600000000     0.737550000000     0.149909   
C375     C      0.489380000000     0.590810000000     0.259835000000    -0.196102   
C375     C      0.489380000000     0.590810000000     0.759835000000    -0.196102   
H237     H      0.507900000000     0.603000000000     0.244600000000     0.0915702  
H237     H      0.507900000000     0.603000000000     0.744600000000     0.0915702  
C376     C      0.590750000000     0.669990000000     0.267185000000     0.090583   
C376     C      0.590750000000     0.669990000000     0.767185000000     0.090583   
C377     C      0.596720000000     0.647630000000     0.288665000000     0.0132069  
C377     C      0.596720000000     0.647630000000     0.788665000000     0.0132069  
H238     H      0.576700000000     0.633000000000     0.302450000000    -0.128057   
H238     H      0.576700000000     0.633000000000     0.802450000000    -0.128057   
C378     C      0.631220000000     0.646490000000     0.290050000000     0.0762546  
C378     C      0.631220000000     0.646490000000     0.790050000000     0.0762546  
C379     C      0.660930000000     0.667650000000     0.268680000000     0.0159554  
C379     C      0.660930000000     0.667650000000     0.768680000000     0.0159554  
H239     H      0.684200000000     0.666500000000     0.268750000000    -0.175525   
H239     H      0.684200000000     0.666500000000     0.768750000000    -0.175525   
C380     C      0.655110000000     0.689910000000     0.247775000000     0.0976645  
C380     C      0.655110000000     0.689910000000     0.747775000000     0.0976645  
C381     C      0.621030000000     0.691700000000     0.247150000000     0.0572032  
C381     C      0.621030000000     0.691700000000     0.747150000000     0.0572032  
H240     H      0.618200000000     0.707700000000     0.233100000000    -0.0472948  
H240     H      0.618200000000     0.707700000000     0.733100000000    -0.0472948  
C382     C      0.397600000000     0.492230000000     0.274255000000     0.0517633  
C382     C      0.397600000000     0.492230000000     0.774255000000     0.0517633  
C383     C      0.686690000000     0.712950000000     0.224605000000    -0.0907301  
C383     C      0.686690000000     0.712950000000     0.724605000000    -0.0907301  
C384     C      0.636920000000     0.623110000000     0.314725000000     0.0179558  
C384     C      0.636920000000     0.623110000000     0.814725000000     0.0179558  
N16      N      0.554610000000     0.670730000000     0.266495000000     0.0232645  
N16      N      0.554610000000     0.670730000000     0.766495000000     0.0232645  
Mn33     Mn     0.330590000000     0.259010000000     0.462845000000    -0.0778062  
Mn33     Mn     0.330590000000     0.259010000000     0.962845000000    -0.0778062  
Mn34     Mn     0.246670000000     0.257710000000     0.433560000000    -0.0573826  
Mn34     Mn     0.246670000000     0.257710000000     0.933560000000    -0.0573826  
O129     O      0.061280000000     0.808040000000     0.415475000000     0.0654874  
O129     O      0.061280000000     0.808040000000     0.915475000000     0.0654874  
O130     O      0.040150000000     0.809240000000     0.461515000000     0.306324   
O130     O      0.040150000000     0.809240000000     0.961515000000     0.306324   
O131     O      0.350090000000     0.069760000000     0.374050000000     0.321349   
O131     O      0.350090000000     0.069760000000     0.874050000000     0.321349   
O132     O      0.383490000000     0.041700000000     0.389465000000     0.375917   
O132     O      0.383490000000     0.041700000000     0.889465000000     0.375917   
O133     O      0.334490000000     0.953970000000     0.481380000000    -0.077847   
O133     O      0.334490000000     0.953970000000     0.981380000000    -0.077847   
O134     O      0.277050000000     0.941590000000     0.000610000000     0.730867   
O134     O      0.277050000000     0.941590000000     0.500610000000     0.730867   
O135     O      0.238510000000     0.200890000000     0.421855000000     0.93094    
O135     O      0.238510000000     0.200890000000     0.921855000000     0.93094    
O136     O      0.279350000000     0.203440000000     0.458490000000    -0.324654   
O136     O      0.279350000000     0.203440000000     0.958490000000    -0.324654   
C385     C      0.255130000000     0.186630000000     0.438000000000    -0.323883   
C385     C      0.255130000000     0.186630000000     0.938000000000    -0.323883   
C386     C      0.244210000000     0.144730000000     0.429830000000    -0.323697   
C386     C      0.244210000000     0.144730000000     0.929830000000    -0.323697   
C387     C      0.222490000000     0.125990000000     0.403485000000    -0.41338    
C387     C      0.222490000000     0.125990000000     0.903485000000    -0.41338    
H241     H      0.214470000000     0.139230000000     0.390415000000    -0.384678   
H241     H      0.214470000000     0.139230000000     0.890415000000    -0.384678   
C388     C      0.213670000000     0.087620000000     0.397835000000    -0.402039   
C388     C      0.213670000000     0.087620000000     0.897835000000    -0.402039   
H242     H      0.199570000000     0.075130000000     0.380565000000    -0.375405   
H242     H      0.199570000000     0.075130000000     0.880565000000    -0.375405   
C389     C      0.224850000000     0.067230000000     0.416590000000    -0.404166   
C389     C      0.224850000000     0.067230000000     0.916590000000    -0.404166   
C390     C      0.245940000000     0.086020000000     0.441350000000     0.394195   
C390     C      0.245940000000     0.086020000000     0.941350000000     0.394195   
H243     H      0.253670000000     0.072430000000     0.454265000000    -0.168171   
H243     H      0.253670000000     0.072430000000     0.954265000000    -0.168171   
C391     C      0.256510000000     0.124800000000     0.448260000000     0.110697   
C391     C      0.256510000000     0.124800000000     0.948260000000     0.110697   
H244     H      0.271770000000     0.137130000000     0.465165000000     0.00570944 
H244     H      0.271770000000     0.137130000000     0.965165000000     0.00570944 
C392     C      0.213270000000     0.024300000000     0.409910000000    -0.210539   
C392     C      0.213270000000     0.024300000000     0.909910000000    -0.210539   
H245     H      0.227170000000     0.024030000000     0.391965000000     0.101244   
H245     H      0.227170000000     0.024030000000     0.891965000000     0.101244   
H246     H      0.185170000000     0.009630000000     0.405515000000     0.172135   
H246     H      0.185170000000     0.009630000000     0.905515000000     0.172135   
C393     C      0.193210000000     0.987190000000     0.456480000000    -0.211549   
C393     C      0.193210000000     0.987190000000     0.956480000000    -0.211549   
H247     H      0.207270000000     0.988430000000     0.474715000000     0.110457   
H247     H      0.207270000000     0.988430000000     0.974715000000     0.110457   
H248     H      0.181470000000     0.003730000000     0.459515000000     0.113611   
H248     H      0.181470000000     0.003730000000     0.959515000000     0.113611   
C394     C      0.160570000000     0.945710000000     0.452620000000    -0.00348996 
C394     C      0.160570000000     0.945710000000     0.952620000000    -0.00348996 
C395     C      0.132920000000     0.926440000000     0.473985000000    -0.191026   
C395     C      0.132920000000     0.926440000000     0.973985000000    -0.191026   
H249     H      0.134770000000     0.939130000000     0.492065000000     0.0888703  
H249     H      0.134770000000     0.939130000000     0.992065000000     0.0888703  
C396     C      0.101850000000     0.888100000000     0.469555000000     0.0898912  
C396     C      0.101850000000     0.888100000000     0.969555000000     0.0898912  
H250     H      0.082970000000     0.876130000000     0.484565000000    -0.182061   
H250     H      0.082970000000     0.876130000000     0.984565000000    -0.182061   
C397     C      0.098240000000     0.868150000000     0.444720000000     0.0791161  
C397     C      0.098240000000     0.868150000000     0.944720000000     0.0791161  
C398     C      0.125490000000     0.885520000000     0.421915000000     0.0875436  
C398     C      0.125490000000     0.885520000000     0.921915000000     0.0875436  
H251     H      0.123470000000     0.871930000000     0.404215000000     0.149816   
H251     H      0.123470000000     0.871930000000     0.904215000000     0.149816   
C399     C      0.156050000000     0.924140000000     0.426500000000    -0.196012   
C399     C      0.156050000000     0.924140000000     0.926500000000    -0.196012   
H252     H      0.174570000000     0.936330000000     0.411265000000     0.0915576  
H252     H      0.174570000000     0.936330000000     0.911265000000     0.0915576  
C400     C      0.257420000000     0.003320000000     0.433850000000     0.090522   
C400     C      0.257420000000     0.003320000000     0.933850000000     0.090522   
C401     C      0.263390000000     0.980960000000     0.455330000000     0.0132389  
C401     C      0.263390000000     0.980960000000     0.955330000000     0.0132389  
H253     H      0.243370000000     0.966330000000     0.469115000000    -0.128006   
H253     H      0.243370000000     0.966330000000     0.969115000000    -0.128006   
C402     C      0.297890000000     0.979820000000     0.456715000000     0.0762027  
C402     C      0.297890000000     0.979820000000     0.956715000000     0.0762027  
C403     C      0.327600000000     0.000980000000     0.435345000000     0.0159816  
C403     C      0.327600000000     0.000980000000     0.935345000000     0.0159816  
H254     H      0.350870000000     0.999830000000     0.435415000000    -0.175446   
H254     H      0.350870000000     0.999830000000     0.935415000000    -0.175446   
C404     C      0.321780000000     0.023240000000     0.414440000000     0.0976549  
C404     C      0.321780000000     0.023240000000     0.914440000000     0.0976549  
C405     C      0.287700000000     0.025030000000     0.413815000000     0.0571728  
C405     C      0.287700000000     0.025030000000     0.913815000000     0.0571728  
H255     H      0.284870000000     0.041030000000     0.399765000000    -0.0472495  
H255     H      0.284870000000     0.041030000000     0.899765000000    -0.0472495  
C406     C      0.064270000000     0.825560000000     0.440920000000     0.0517627  
C406     C      0.064270000000     0.825560000000     0.940920000000     0.0517627  
C407     C      0.353360000000     0.046280000000     0.391270000000    -0.0906451  
C407     C      0.353360000000     0.046280000000     0.891270000000    -0.0906451  
C408     C      0.303590000000     0.956440000000     0.481390000000     0.0178086  
C408     C      0.303590000000     0.956440000000     0.981390000000     0.0178086  
N17      N      0.221280000000     0.004060000000     0.433160000000     0.023338   
N17      N      0.221280000000     0.004060000000     0.933160000000     0.023338   
Mn35     Mn     0.997250000000     0.592350000000     0.129515000000    -0.0776631  
Mn35     Mn     0.997250000000     0.592350000000     0.629515000000    -0.0776631  
Mn36     Mn     0.913340000000     0.591040000000     0.100225000000    -0.0574462  
Mn36     Mn     0.913340000000     0.591040000000     0.600225000000    -0.0574462  
O137     O      0.727940000000     0.141380000000     0.082145000000     0.0655189  
O137     O      0.727940000000     0.141380000000     0.582145000000     0.0655189  
O138     O      0.706810000000     0.142580000000     0.128185000000     0.306309   
O138     O      0.706810000000     0.142580000000     0.628185000000     0.306309   
O139     O      0.016750000000     0.403100000000     0.040720000000     0.321208   
O139     O      0.016750000000     0.403100000000     0.540720000000     0.321208   
O140     O      0.050150000000     0.375040000000     0.056135000000     0.375991   
O140     O      0.050150000000     0.375040000000     0.556135000000     0.375991   
O141     O      0.001150000000     0.287310000000     0.148050000000    -0.0779072  
O141     O      0.001150000000     0.287310000000     0.648050000000    -0.0779072  
O142     O      0.943710000000     0.274930000000     0.167280000000     0.730726   
O142     O      0.943710000000     0.274930000000     0.667280000000     0.730726   
O143     O      0.905170000000     0.534230000000     0.088525000000     0.930907   
O143     O      0.905170000000     0.534230000000     0.588525000000     0.930907   
O144     O      0.946010000000     0.536780000000     0.125160000000    -0.324716   
O144     O      0.946010000000     0.536780000000     0.625160000000    -0.324716   
C409     C      0.921790000000     0.519970000000     0.104670000000    -0.323924   
C409     C      0.921790000000     0.519970000000     0.604670000000    -0.323924   
C410     C      0.910870000000     0.478070000000     0.096500000000    -0.323725   
C410     C      0.910870000000     0.478070000000     0.596500000000    -0.323725   
C411     C      0.889150000000     0.459330000000     0.070155000000    -0.413382   
C411     C      0.889150000000     0.459330000000     0.570155000000    -0.413382   
H256     H      0.881130000000     0.472570000000     0.057085000000    -0.384605   
H256     H      0.881130000000     0.472570000000     0.557085000000    -0.384605   
C412     C      0.880330000000     0.420960000000     0.064505000000    -0.401976   
C412     C      0.880330000000     0.420960000000     0.564505000000    -0.401976   
H257     H      0.866230000000     0.408470000000     0.047235000000    -0.375333   
H257     H      0.866230000000     0.408470000000     0.547235000000    -0.375333   
C413     C      0.891510000000     0.400570000000     0.083260000000    -0.404149   
C413     C      0.891510000000     0.400570000000     0.583260000000    -0.404149   
C414     C      0.912600000000     0.419360000000     0.108020000000     0.394167   
C414     C      0.912600000000     0.419360000000     0.608020000000     0.394167   
H258     H      0.920330000000     0.405770000000     0.120935000000    -0.168164   
H258     H      0.920330000000     0.405770000000     0.620935000000    -0.168164   
C415     C      0.923170000000     0.458140000000     0.114930000000     0.110629   
C415     C      0.923170000000     0.458140000000     0.614930000000     0.110629   
H259     H      0.938430000000     0.470470000000     0.131835000000     0.00572486 
H259     H      0.938430000000     0.470470000000     0.631835000000     0.00572486 
C416     C      0.879930000000     0.357640000000     0.076580000000    -0.210489   
C416     C      0.879930000000     0.357640000000     0.576580000000    -0.210489   
H260     H      0.893830000000     0.357370000000     0.058635000000     0.101223   
H260     H      0.893830000000     0.357370000000     0.558635000000     0.101223   
H261     H      0.851830000000     0.342970000000     0.072185000000     0.172069   
H261     H      0.851830000000     0.342970000000     0.572185000000     0.172069   
C417     C      0.859870000000     0.320530000000     0.123150000000    -0.211543   
C417     C      0.859870000000     0.320530000000     0.623150000000    -0.211543   
H262     H      0.873930000000     0.321770000000     0.141385000000     0.110447   
H262     H      0.873930000000     0.321770000000     0.641385000000     0.110447   
H263     H      0.848130000000     0.337070000000     0.126185000000     0.113598   
H263     H      0.848130000000     0.337070000000     0.626185000000     0.113598   
C418     C      0.827230000000     0.279050000000     0.119290000000    -0.00349551 
C418     C      0.827230000000     0.279050000000     0.619290000000    -0.00349551 
C419     C      0.799580000000     0.259780000000     0.140655000000    -0.191005   
C419     C      0.799580000000     0.259780000000     0.640655000000    -0.191005   
H264     H      0.801430000000     0.272470000000     0.158735000000     0.0888556  
H264     H      0.801430000000     0.272470000000     0.658735000000     0.0888556  
C420     C      0.768510000000     0.221440000000     0.136225000000     0.089879   
C420     C      0.768510000000     0.221440000000     0.636225000000     0.089879   
H265     H      0.749630000000     0.209470000000     0.151235000000    -0.182048   
H265     H      0.749630000000     0.209470000000     0.651235000000    -0.182048   
C421     C      0.764900000000     0.201490000000     0.111390000000     0.079104   
C421     C      0.764900000000     0.201490000000     0.611390000000     0.079104   
C422     C      0.792150000000     0.218860000000     0.088585000000     0.0875388  
C422     C      0.792150000000     0.218860000000     0.588585000000     0.0875388  
H266     H      0.790130000000     0.205270000000     0.070885000000     0.149804   
H266     H      0.790130000000     0.205270000000     0.570885000000     0.149804   
C423     C      0.822710000000     0.257480000000     0.093170000000    -0.196005   
C423     C      0.822710000000     0.257480000000     0.593170000000    -0.196005   
H267     H      0.841230000000     0.269670000000     0.077935000000     0.0915506  
H267     H      0.841230000000     0.269670000000     0.577935000000     0.0915506  
C424     C      0.924080000000     0.336660000000     0.100520000000     0.090512   
C424     C      0.924080000000     0.336660000000     0.600520000000     0.090512   
C425     C      0.930050000000     0.314300000000     0.122000000000     0.0132394  
C425     C      0.930050000000     0.314300000000     0.622000000000     0.0132394  
H268     H      0.910030000000     0.299670000000     0.135785000000    -0.128002   
H268     H      0.910030000000     0.299670000000     0.635785000000    -0.128002   
C426     C      0.964550000000     0.313160000000     0.123385000000     0.0761929  
C426     C      0.964550000000     0.313160000000     0.623385000000     0.0761929  
C427     C      0.994260000000     0.334320000000     0.102015000000     0.0159609  
C427     C      0.994260000000     0.334320000000     0.602015000000     0.0159609  
H269     H      0.017530000000     0.333170000000     0.102085000000    -0.175441   
H269     H      0.017530000000     0.333170000000     0.602085000000    -0.175441   
C428     C      0.988440000000     0.356580000000     0.081110000000     0.0976302  
C428     C      0.988440000000     0.356580000000     0.581110000000     0.0976302  
C429     C      0.954360000000     0.358370000000     0.080485000000     0.0572072  
C429     C      0.954360000000     0.358370000000     0.580485000000     0.0572072  
H270     H      0.951530000000     0.374370000000     0.066435000000    -0.0473114  
H270     H      0.951530000000     0.374370000000     0.566435000000    -0.0473114  
C430     C      0.730930000000     0.158900000000     0.107590000000     0.0517664  
C430     C      0.730930000000     0.158900000000     0.607590000000     0.0517664  
C431     C      0.020020000000     0.379620000000     0.057940000000    -0.0905839  
C431     C      0.020020000000     0.379620000000     0.557940000000    -0.0905839  
C432     C      0.970250000000     0.289780000000     0.148060000000     0.0175087  
C432     C      0.970250000000     0.289780000000     0.648060000000     0.0175087  
N18      N      0.887940000000     0.337400000000     0.099830000000     0.0235154  
N18      N      0.887940000000     0.337400000000     0.599830000000     0.0235154  


