data_[CoreMOF]ZOFZUR_clean

_audit_creation_method RASPA-1.0
_audit_creation_date 2025-1-26
_audit_author_name ''

_cell_length_a    38.9881
_cell_length_b    38.9881
_cell_length_c    44.5924
_cell_angle_alpha 90
_cell_angle_beta  90
_cell_angle_gamma 120
_cell_volume      58702.4

_symmetry_cell_setting          triclinic
_symmetry_space_group_name_Hall 'P 1'
_symmetry_space_group_name_H-M  'P 1'
_symmetry_Int_Tables_number     1

_symmetry_equiv_pos_as_xyz 'x,y,z'

loop_
_atom_site_label
_atom_site_type_symbol
_atom_site_fract_x
_atom_site_fract_y
_atom_site_fract_z
_atom_site_charge
Mn1      Mn     0.663920000000     0.738240000000     0.046180000000     0.730726   
Mn2      Mn     0.580010000000     0.655630000000     0.016890000000     0.930914   
O1       O      0.394610000000     0.919900000000     0.498810000000    -0.324694   
O2       O      0.373480000000     0.897570000000     0.044850000000    -0.323929   
O3       O      0.683420000000     0.946990000000     0.457385000000    -0.323723   
O4       O      0.716820000000     0.008450000000     0.472800000000    -0.413377   
O5       O      0.667820000000     0.047180000000     0.064715000000    -0.384605   
O6       O      0.610380000000     0.002120000000     0.083945000000    -0.401976   
O7       O      0.571840000000     0.704280000000     0.005190000000    -0.37533    
O8       O      0.612680000000     0.742570000000     0.041825000000    -0.404146   
C1       C      0.588460000000     0.735160000000     0.021335000000     0.394154   
C2       C      0.577540000000     0.766140000000     0.013165000000    -0.168124   
C3       C      0.555820000000     0.763160000000     0.486820000000     0.110684   
H1       H      0.547800000000     0.741900000000     0.473750000000     0.00571066 
C4       C      0.547000000000     0.792710000000     0.481170000000    -0.210532   
H2       H      0.532900000000     0.791100000000     0.463900000000     0.10124    
C5       C      0.558180000000     0.824280000000     0.499925000000     0.172123   
C6       C      0.579270000000     0.826580000000     0.024685000000    -0.211486   
H3       H      0.587000000000     0.847900000000     0.037600000000     0.110429   
C7       C      0.589840000000     0.798370000000     0.031595000000     0.113555   
H4       H      0.605100000000     0.801300000000     0.048500000000    -0.00348029 
C8       C      0.546600000000     0.855630000000     0.493245000000    -0.191016   
H5       H      0.560500000000     0.869800000000     0.475300000000     0.0888611  
H6       H      0.518500000000     0.842200000000     0.488850000000     0.0898879  
C9       C      0.526540000000     0.872680000000     0.039815000000    -0.182043   
H7       H      0.540600000000     0.885500000000     0.058050000000     0.079103   
H8       H      0.514800000000     0.844400000000     0.042850000000     0.0875393  
C10      C      0.493900000000     0.881520000000     0.035955000000     0.1498     
C11      C      0.466250000000     0.873140000000     0.057320000000    -0.196006   
H9       H      0.468100000000     0.862300000000     0.075400000000     0.0915512  
C12      C      0.435180000000     0.880410000000     0.052890000000     0.0905177  
H10      H      0.416300000000     0.873500000000     0.067900000000     0.0132374  
C13      C      0.431570000000     0.896750000000     0.028055000000    -0.128013   
C14      C      0.458820000000     0.906630000000     0.005250000000     0.0762083  
H11      H      0.456800000000     0.918200000000     0.487550000000     0.0159766  
C15      C      0.489380000000     0.898570000000     0.009835000000    -0.175428   
H12      H      0.507900000000     0.904900000000     0.494600000000     0.0976468  
C16      C      0.590750000000     0.920760000000     0.017185000000     0.0572219  
C17      C      0.596720000000     0.949090000000     0.038665000000    -0.0473138  
H13      H      0.576700000000     0.943700000000     0.052450000000     0.0517674  
C18      C      0.631220000000     0.984730000000     0.040050000000    -0.0905871  
C19      C      0.660930000000     0.993280000000     0.018680000000     0.0175269  
H14      H      0.684200000000     0.017700000000     0.018750000000     0.0235108  
C20      C      0.655110000000     0.965200000000     0.497775000000    -0.0776054  
C21      C      0.621030000000     0.929330000000     0.497150000000    -0.0575075  
H15      H      0.618200000000     0.910500000000     0.483100000000     0.0655242  
C22      C      0.397600000000     0.905370000000     0.024255000000     0.306319   
C23      C      0.686690000000     0.973740000000     0.474605000000     0.321174   
C24      C      0.636920000000     0.013810000000     0.064725000000     0.375917   
N1       N      0.554610000000     0.883880000000     0.016495000000    -0.0779174  
Mn3      Mn     0.330590000000     0.071570000000     0.212845000000     0.730805   
Mn4      Mn     0.246670000000     0.988970000000     0.183560000000     0.930921   
O9       O      0.061280000000     0.253230000000     0.165475000000    -0.324595   
O10      O      0.040150000000     0.230900000000     0.211515000000    -0.323874   
O11      O      0.350090000000     0.280320000000     0.124050000000    -0.323741   
O12      O      0.383490000000     0.341780000000     0.139465000000    -0.413456   
O13      O      0.334490000000     0.380510000000     0.231380000000    -0.384612   
O14      O      0.277050000000     0.335450000000     0.250610000000    -0.401973   
O15      O      0.238510000000     0.037610000000     0.171855000000    -0.375398   
O16      O      0.279350000000     0.075900000000     0.208490000000    -0.404163   
C25      C      0.255130000000     0.068490000000     0.188000000000     0.3942     
C26      C      0.244210000000     0.099470000000     0.179830000000    -0.168169   
C27      C      0.222490000000     0.096490000000     0.153485000000     0.110694   
H16      H      0.214470000000     0.075230000000     0.140415000000     0.00571867 
C28      C      0.213670000000     0.126040000000     0.147835000000    -0.210536   
H17      H      0.199570000000     0.124430000000     0.130565000000     0.101246   
C29      C      0.224850000000     0.157610000000     0.166590000000     0.172131   
C30      C      0.245940000000     0.159910000000     0.191350000000    -0.211548   
H18      H      0.253670000000     0.181230000000     0.204265000000     0.110452   
C31      C      0.256510000000     0.131700000000     0.198260000000     0.113607   
H19      H      0.271770000000     0.134630000000     0.215165000000    -0.003496   
C32      C      0.213270000000     0.188960000000     0.159910000000    -0.191023   
H20      H      0.227170000000     0.203130000000     0.141965000000     0.0888665  
H21      H      0.185170000000     0.175530000000     0.155515000000     0.0898913  
C33      C      0.193210000000     0.206010000000     0.206480000000    -0.182061   
H22      H      0.207270000000     0.218830000000     0.224715000000     0.0791123  
H23      H      0.181470000000     0.177730000000     0.209515000000     0.0875438  
C34      C      0.160570000000     0.214850000000     0.202620000000     0.149821   
C35      C      0.132920000000     0.206470000000     0.223985000000    -0.196022   
H24      H      0.134770000000     0.195630000000     0.242065000000     0.091558   
C36      C      0.101850000000     0.213740000000     0.219555000000     0.0905347  
H25      H      0.082970000000     0.206830000000     0.234565000000     0.0132283  
C37      C      0.098240000000     0.230080000000     0.194720000000    -0.128024   
C38      C      0.125490000000     0.239960000000     0.171915000000     0.0762125  
H26      H      0.123470000000     0.251530000000     0.154215000000     0.0159734  
C39      C      0.156050000000     0.231900000000     0.176500000000    -0.175454   
H27      H      0.174570000000     0.238230000000     0.161265000000     0.0976559  
C40      C      0.257420000000     0.254090000000     0.183850000000     0.0571865  
C41      C      0.263390000000     0.282420000000     0.205330000000    -0.0472947  
H28      H      0.243370000000     0.277030000000     0.219115000000     0.0517737  
C42      C      0.297890000000     0.318060000000     0.206715000000    -0.0905775  
C43      C      0.327600000000     0.326610000000     0.185345000000     0.0176639  
H29      H      0.350870000000     0.351030000000     0.185415000000     0.0234142  
C44      C      0.321780000000     0.298530000000     0.164440000000    -0.0776853  
C45      C      0.287700000000     0.262660000000     0.163815000000    -0.0574549  
H30      H      0.284870000000     0.243830000000     0.149765000000     0.065509   
C46      C      0.064270000000     0.238700000000     0.190920000000     0.30632    
C47      C      0.353360000000     0.307070000000     0.141270000000     0.321275   
C48      C      0.303590000000     0.347140000000     0.231390000000     0.375866   
N2       N      0.221280000000     0.217210000000     0.183160000000    -0.0779105  
Mn5      Mn     0.997250000000     0.404900000000     0.379515000000     0.730777   
Mn6      Mn     0.913340000000     0.322300000000     0.350225000000     0.930849   
O17      O      0.727940000000     0.586570000000     0.332145000000    -0.324685   
O18      O      0.706810000000     0.564240000000     0.378185000000    -0.323914   
O19      O      0.016750000000     0.613660000000     0.290720000000    -0.323733   
O20      O      0.050150000000     0.675120000000     0.306135000000    -0.413382   
O21      O      0.001150000000     0.713850000000     0.398050000000    -0.384675   
O22      O      0.943710000000     0.668790000000     0.417280000000    -0.402048   
O23      O      0.905170000000     0.370950000000     0.338525000000    -0.375324   
O24      O      0.946010000000     0.409240000000     0.375160000000    -0.404118   
C49      C      0.921790000000     0.401830000000     0.354670000000     0.39415    
C50      C      0.910870000000     0.432810000000     0.346500000000    -0.168147   
C51      C      0.889150000000     0.429830000000     0.320155000000     0.11068    
H31      H      0.881130000000     0.408570000000     0.307085000000     0.00571689 
C52      C      0.880330000000     0.459380000000     0.314505000000    -0.210525   
H32      H      0.866230000000     0.457770000000     0.297235000000     0.101242   
C53      C      0.891510000000     0.490950000000     0.333260000000     0.172125   
C54      C      0.912600000000     0.493250000000     0.358020000000    -0.211534   
H33      H      0.920330000000     0.514570000000     0.370935000000     0.110451   
C55      C      0.923170000000     0.465040000000     0.364930000000     0.113592   
H34      H      0.938430000000     0.467970000000     0.381835000000    -0.0034806  
C56      C      0.879930000000     0.522300000000     0.326580000000    -0.191021   
H35      H      0.893830000000     0.536470000000     0.308635000000     0.0888701  
H36      H      0.851830000000     0.508870000000     0.322185000000     0.0898904  
C57      C      0.859870000000     0.539350000000     0.373150000000    -0.182054   
H37      H      0.873930000000     0.552170000000     0.391385000000     0.0791102  
H38      H      0.848130000000     0.511070000000     0.376185000000     0.0875408  
C58      C      0.827230000000     0.548190000000     0.369290000000     0.149809   
C59      C      0.799580000000     0.539810000000     0.390655000000    -0.196004   
H39      H      0.801430000000     0.528970000000     0.408735000000     0.0915529  
C60      C      0.768510000000     0.547080000000     0.386225000000     0.090514   
H40      H      0.749630000000     0.540170000000     0.401235000000     0.0132424  
C61      C      0.764900000000     0.563420000000     0.361390000000    -0.127996   
C62      C      0.792150000000     0.573300000000     0.338585000000     0.0761963  
H41      H      0.790130000000     0.584870000000     0.320885000000     0.0159843  
C63      C      0.822710000000     0.565240000000     0.343170000000    -0.175439   
H42      H      0.841230000000     0.571570000000     0.327935000000     0.0976531  
C64      C      0.924080000000     0.587430000000     0.350520000000     0.0571643  
C65      C      0.930050000000     0.615760000000     0.372000000000    -0.0472389  
H43      H      0.910030000000     0.610370000000     0.385785000000     0.0517544  
C66      C      0.964550000000     0.651400000000     0.373385000000    -0.0906598  
C67      C      0.994260000000     0.659950000000     0.352015000000     0.0178245  
H44      H      0.017530000000     0.684370000000     0.352085000000     0.0233298  
C68      C      0.988440000000     0.631870000000     0.331110000000    -0.0776838  
C69      C      0.954360000000     0.596000000000     0.330485000000    -0.0574324  
H45      H      0.951530000000     0.577170000000     0.316435000000     0.0655148  
C70      C      0.730930000000     0.572040000000     0.357590000000     0.306306   
C71      C      0.020020000000     0.640410000000     0.307940000000     0.321237   
C72      C      0.970250000000     0.680480000000     0.398060000000     0.376006   
N3       N      0.887940000000     0.550550000000     0.349830000000    -0.0779075  
Mn7      Mn     0.261760000000     0.925680000000     0.046180000000     0.730733   
Mn8      Mn     0.344370000000     0.924370000000     0.016890000000     0.930917   
O25      O      0.080100000000     0.474710000000     0.498810000000    -0.324642   
O26      O      0.102430000000     0.475910000000     0.044850000000    -0.323887   
O27      O      0.053010000000     0.736430000000     0.457385000000    -0.32369    
O28      O      0.991550000000     0.708370000000     0.472800000000    -0.413343   
O29      O      0.952820000000     0.620640000000     0.064715000000    -0.384612   
O30      O      0.997880000000     0.608260000000     0.083945000000    -0.401984   
O31      O      0.295720000000     0.867560000000     0.005190000000    -0.375373   
O32      O      0.257430000000     0.870110000000     0.041825000000    -0.404157   
C73      C      0.264840000000     0.853300000000     0.021335000000     0.394174   
C74      C      0.233860000000     0.811400000000     0.013165000000    -0.168134   
C75      C      0.236840000000     0.792660000000     0.486820000000     0.110692   
H46      H      0.258100000000     0.805900000000     0.473750000000     0.00570763 
C76      C      0.207290000000     0.754290000000     0.481170000000    -0.210538   
H47      H      0.208900000000     0.741800000000     0.463900000000     0.101242   
C77      C      0.175720000000     0.733900000000     0.499925000000     0.172128   
C78      C      0.173420000000     0.752690000000     0.024685000000    -0.211492   
H48      H      0.152100000000     0.739100000000     0.037600000000     0.110431   
C79      C      0.201630000000     0.791470000000     0.031595000000     0.113562   
H49      H      0.198700000000     0.803800000000     0.048500000000    -0.00348393 
C80      C      0.144370000000     0.690970000000     0.493245000000    -0.191019   
H50      H      0.130200000000     0.690700000000     0.475300000000     0.0888619  
H51      H      0.157800000000     0.676300000000     0.488850000000     0.0898885  
C81      C      0.127320000000     0.653860000000     0.039815000000    -0.182046   
H52      H      0.114500000000     0.655100000000     0.058050000000     0.0791028  
H53      H      0.155600000000     0.670400000000     0.042850000000     0.0875395  
C82      C      0.118480000000     0.612380000000     0.035955000000     0.149804   
C83      C      0.126860000000     0.593110000000     0.057320000000    -0.196013   
H54      H      0.137700000000     0.605800000000     0.075400000000     0.0915528  
C84      C      0.119590000000     0.554770000000     0.052890000000     0.0905264  
H55      H      0.126500000000     0.542800000000     0.067900000000     0.0132337  
C85      C      0.103250000000     0.534820000000     0.028055000000    -0.128023   
C86      C      0.093370000000     0.552190000000     0.005250000000     0.0762158  
H56      H      0.081800000000     0.538600000000     0.487550000000     0.015973   
C87      C      0.101430000000     0.590810000000     0.009835000000    -0.175433   
H57      H      0.095100000000     0.603000000000     0.494600000000     0.0976483  
C88      C      0.079240000000     0.669990000000     0.017185000000     0.057219   
C89      C      0.050910000000     0.647630000000     0.038665000000    -0.04731    
H58      H      0.056300000000     0.633000000000     0.052450000000     0.0517647  
C90      C      0.015270000000     0.646490000000     0.040050000000    -0.0905942  
C91      C      0.006720000000     0.667650000000     0.018680000000     0.0175304  
H59      H      0.982300000000     0.666500000000     0.018750000000     0.0235035  
C92      C      0.034800000000     0.689910000000     0.497775000000    -0.0776102  
C93      C      0.070670000000     0.691700000000     0.497150000000    -0.0575053  
H60      H      0.089500000000     0.707700000000     0.483100000000     0.0655232  
C94      C      0.094630000000     0.492230000000     0.024255000000     0.306331   
C95      C      0.026260000000     0.712950000000     0.474605000000     0.321165   
C96      C      0.986190000000     0.623110000000     0.064725000000     0.375925   
N4       N      0.116120000000     0.670730000000     0.016495000000    -0.0779164  
Mn9      Mn     0.928430000000     0.259010000000     0.212845000000     0.73079    
Mn10     Mn     0.011030000000     0.257710000000     0.183560000000     0.930766   
O33      O      0.746770000000     0.808040000000     0.165475000000    -0.324697   
O34      O      0.769100000000     0.809240000000     0.211515000000    -0.323938   
O35      O      0.719680000000     0.069760000000     0.124050000000    -0.323727   
O36      O      0.658220000000     0.041700000000     0.139465000000    -0.413447   
O37      O      0.619490000000     0.953970000000     0.231380000000    -0.384632   
O38      O      0.664550000000     0.941590000000     0.250610000000    -0.402001   
O39      O      0.962390000000     0.200890000000     0.171855000000    -0.375302   
O40      O      0.924100000000     0.203440000000     0.208490000000    -0.40416    
C97      C      0.931510000000     0.186630000000     0.188000000000     0.39416    
C98      C      0.900530000000     0.144730000000     0.179830000000    -0.168159   
C99      C      0.903510000000     0.125990000000     0.153485000000     0.110697   
H61      H      0.924770000000     0.139230000000     0.140415000000     0.00572218 
C100     C      0.873960000000     0.087620000000     0.147835000000    -0.210545   
H62      H      0.875570000000     0.075130000000     0.130565000000     0.101259   
C101     C      0.842390000000     0.067230000000     0.166590000000     0.172153   
C102     C      0.840090000000     0.086020000000     0.191350000000    -0.21156    
H63      H      0.818770000000     0.072430000000     0.204265000000     0.110462   
C103     C      0.868300000000     0.124800000000     0.198260000000     0.113612   
H64      H      0.865370000000     0.137130000000     0.215165000000    -0.00349416 
C104     C      0.811040000000     0.024300000000     0.159910000000    -0.191062   
H65      H      0.796870000000     0.024030000000     0.141965000000     0.088888   
H66      H      0.824470000000     0.009630000000     0.155515000000     0.0899248  
C105     C      0.793990000000     0.987190000000     0.206480000000    -0.182307   
H67      H      0.781170000000     0.988430000000     0.224715000000     0.0791665  
H68      H      0.822270000000     0.003730000000     0.209515000000     0.0876627  
C106     C      0.785150000000     0.945710000000     0.202620000000     0.149911   
C107     C      0.793530000000     0.926440000000     0.223985000000    -0.196093   
H69      H      0.804370000000     0.939130000000     0.242065000000     0.0915768  
C108     C      0.786260000000     0.888100000000     0.219555000000     0.0905768  
H70      H      0.793170000000     0.876130000000     0.234565000000     0.0132206  
C109     C      0.769920000000     0.868150000000     0.194720000000    -0.12804    
C110     C      0.760040000000     0.885520000000     0.171915000000     0.0762497  
H71      H      0.748470000000     0.871930000000     0.154215000000     0.0159622  
C111     C      0.768100000000     0.924140000000     0.176500000000    -0.175519   
H72      H      0.761770000000     0.936330000000     0.161265000000     0.097665   
C112     C      0.745910000000     0.003320000000     0.183850000000     0.057209   
C113     C      0.717580000000     0.980960000000     0.205330000000    -0.0473019  
H73      H      0.722970000000     0.966330000000     0.219115000000     0.0517694  
C114     C      0.681940000000     0.979820000000     0.206715000000    -0.0907232  
C115     C      0.673390000000     0.000980000000     0.185345000000     0.017947   
H74      H      0.648970000000     0.999830000000     0.185415000000     0.0232723  
C116     C      0.701470000000     0.023240000000     0.164440000000    -0.0777934  
C117     C      0.737340000000     0.025030000000     0.163815000000    -0.0573907  
H75      H      0.756170000000     0.041030000000     0.149765000000     0.0654895  
C118     C      0.761300000000     0.825560000000     0.190920000000     0.306314   
C119     C      0.692930000000     0.046280000000     0.141270000000     0.32133    
C120     C      0.652860000000     0.956440000000     0.231390000000     0.375913   
N5       N      0.782790000000     0.004060000000     0.183160000000    -0.0778459  
Mn11     Mn     0.595100000000     0.592350000000     0.379515000000     0.730786   
Mn12     Mn     0.677700000000     0.591040000000     0.350225000000     0.930987   
O41      O      0.413430000000     0.141380000000     0.332145000000    -0.324637   
O42      O      0.435760000000     0.142580000000     0.378185000000    -0.323883   
O43      O      0.386340000000     0.403100000000     0.290720000000    -0.323774   
O44      O      0.324880000000     0.375040000000     0.306135000000    -0.413419   
O45      O      0.286150000000     0.287310000000     0.398050000000    -0.384601   
O46      O      0.331210000000     0.274930000000     0.417280000000    -0.401989   
O47      O      0.629050000000     0.534230000000     0.338525000000    -0.375389   
O48      O      0.590760000000     0.536780000000     0.375160000000    -0.404193   
C121     C      0.598170000000     0.519970000000     0.354670000000     0.394206   
C122     C      0.567190000000     0.478070000000     0.346500000000    -0.16818    
C123     C      0.570170000000     0.459330000000     0.320155000000     0.110698   
H76      H      0.591430000000     0.472570000000     0.307085000000     0.00570618 
C124     C      0.540620000000     0.420960000000     0.314505000000    -0.210543   
H77      H      0.542230000000     0.408470000000     0.297235000000     0.101244   
C125     C      0.509050000000     0.400570000000     0.333260000000     0.172134   
C126     C      0.506750000000     0.419360000000     0.358020000000    -0.211554   
H78      H      0.485430000000     0.405770000000     0.370935000000     0.110453   
C127     C      0.534960000000     0.458140000000     0.364930000000     0.113613   
H79      H      0.532030000000     0.470470000000     0.381835000000    -0.00349732 
C128     C      0.477700000000     0.357640000000     0.326580000000    -0.191024   
H80      H      0.463530000000     0.357370000000     0.308635000000     0.0888659  
H81      H      0.491130000000     0.342970000000     0.322185000000     0.0898905  
C129     C      0.460650000000     0.320530000000     0.373150000000    -0.182053   
H82      H      0.447830000000     0.321770000000     0.391385000000     0.0791078  
H83      H      0.488930000000     0.337070000000     0.376185000000     0.08754    
C130     C      0.451810000000     0.279050000000     0.369290000000     0.149809   
C131     C      0.460190000000     0.259780000000     0.390655000000    -0.196009   
H84      H      0.471030000000     0.272470000000     0.408735000000     0.0915528  
C132     C      0.452920000000     0.221440000000     0.386225000000     0.0905193  
H85      H      0.459830000000     0.209470000000     0.401235000000     0.0132388  
C133     C      0.436580000000     0.201490000000     0.361390000000    -0.128007   
C134     C      0.426700000000     0.218860000000     0.338585000000     0.0762001  
H86      H      0.415130000000     0.205270000000     0.320885000000     0.0159808  
C135     C      0.434760000000     0.257480000000     0.343170000000    -0.175443   
H87      H      0.428430000000     0.269670000000     0.327935000000     0.0976522  
C136     C      0.412570000000     0.336660000000     0.350520000000     0.0571859  
C137     C      0.384240000000     0.314300000000     0.372000000000    -0.0472912  
H88      H      0.389630000000     0.299670000000     0.385785000000     0.0517693  
C138     C      0.348600000000     0.313160000000     0.373385000000    -0.0905797  
C139     C      0.340050000000     0.334320000000     0.352015000000     0.0176625  
H89      H      0.315630000000     0.333170000000     0.352085000000     0.0234223  
C140     C      0.368130000000     0.356580000000     0.331110000000    -0.0776808  
C141     C      0.404000000000     0.358370000000     0.330485000000    -0.0574558  
H90      H      0.422830000000     0.374370000000     0.316435000000     0.0655092  
C142     C      0.427960000000     0.158900000000     0.357590000000     0.306312   
C143     C      0.359590000000     0.379620000000     0.307940000000     0.321271   
C144     C      0.319520000000     0.289780000000     0.398060000000     0.375881   
N6       N      0.449450000000     0.337400000000     0.349830000000    -0.0779115  
Mn13     Mn     0.074320000000     0.336080000000     0.046180000000     0.730679   
Mn14     Mn     0.075630000000     0.419990000000     0.016890000000     0.930876   
O49      O      0.525290000000     0.605390000000     0.498810000000    -0.324659   
O50      O      0.524090000000     0.626520000000     0.044850000000    -0.323876   
O51      O      0.263570000000     0.316580000000     0.457385000000    -0.323751   
O52      O      0.291630000000     0.283180000000     0.472800000000    -0.413371   
O53      O      0.379360000000     0.332180000000     0.064715000000    -0.38461    
O54      O      0.391740000000     0.389620000000     0.083945000000    -0.401989   
O55      O      0.132440000000     0.428160000000     0.005190000000    -0.375396   
O56      O      0.129890000000     0.387320000000     0.041825000000    -0.404162   
C145     C      0.146700000000     0.411540000000     0.021335000000     0.394173   
C146     C      0.188600000000     0.422460000000     0.013165000000    -0.168132   
C147     C      0.207340000000     0.444180000000     0.486820000000     0.110693   
H91      H      0.194100000000     0.452200000000     0.473750000000     0.00570874 
C148     C      0.245710000000     0.453000000000     0.481170000000    -0.210539   
H92      H      0.258200000000     0.467100000000     0.463900000000     0.101243   
C149     C      0.266100000000     0.441820000000     0.499925000000     0.17213    
C150     C      0.247310000000     0.420730000000     0.024685000000    -0.211493   
H93      H      0.260900000000     0.413000000000     0.037600000000     0.110433   
C151     C      0.208530000000     0.410160000000     0.031595000000     0.113562   
H94      H      0.196200000000     0.394900000000     0.048500000000    -0.00348188 
C152     C      0.309030000000     0.453400000000     0.493245000000    -0.191023   
H95      H      0.309300000000     0.439500000000     0.475300000000     0.0888662  
H96      H      0.323700000000     0.481500000000     0.488850000000     0.0898909  
C153     C      0.346140000000     0.473460000000     0.039815000000    -0.182049   
H97      H      0.344900000000     0.459400000000     0.058050000000     0.0791086  
H98      H      0.329600000000     0.485200000000     0.042850000000     0.0875412  
C154     C      0.387620000000     0.506100000000     0.035955000000     0.149807   
C155     C      0.406890000000     0.533750000000     0.057320000000    -0.196008   
H99      H      0.394200000000     0.531900000000     0.075400000000     0.0915556  
C156     C      0.445230000000     0.564820000000     0.052890000000     0.0905246  
H100     H      0.457200000000     0.583700000000     0.067900000000     0.0132392  
C157     C      0.465180000000     0.568430000000     0.028055000000    -0.128013   
C158     C      0.447810000000     0.541180000000     0.005250000000     0.076215   
H101     H      0.461400000000     0.543200000000     0.487550000000     0.0159818  
C159     C      0.409190000000     0.510620000000     0.009835000000    -0.175428   
H102     H      0.397000000000     0.492100000000     0.494600000000     0.0976528  
C160     C      0.330010000000     0.409250000000     0.017185000000     0.0572075  
C161     C      0.352370000000     0.403280000000     0.038665000000    -0.0473028  
H103     H      0.367000000000     0.423300000000     0.052450000000     0.0517779  
C162     C      0.353510000000     0.368780000000     0.040050000000    -0.0905744  
C163     C      0.332350000000     0.339070000000     0.018680000000     0.0176692  
H104     H      0.333500000000     0.315800000000     0.018750000000     0.0234249  
C164     C      0.310090000000     0.344890000000     0.497775000000    -0.077667   
C165     C      0.308300000000     0.378970000000     0.497150000000    -0.0574649  
H105     H      0.292300000000     0.381800000000     0.483100000000     0.0655124  
C166     C      0.507770000000     0.602400000000     0.024255000000     0.306327   
C167     C      0.287050000000     0.313310000000     0.474605000000     0.321253   
C168     C      0.376890000000     0.363080000000     0.064725000000     0.375874   
N7       N      0.329270000000     0.445390000000     0.016495000000    -0.0779125  
Mn15     Mn     0.740990000000     0.669410000000     0.212845000000     0.730716   
Mn16     Mn     0.742290000000     0.753330000000     0.183560000000     0.930933   
O57      O      0.191960000000     0.938720000000     0.165475000000    -0.324658   
O58      O      0.190760000000     0.959850000000     0.211515000000    -0.32396    
O59      O      0.930240000000     0.649910000000     0.124050000000    -0.323773   
O60      O      0.958300000000     0.616510000000     0.139465000000    -0.413486   
O61      O      0.046030000000     0.665510000000     0.231380000000    -0.384623   
O62      O      0.058410000000     0.722950000000     0.250610000000    -0.401989   
O63      O      0.799110000000     0.761490000000     0.171855000000    -0.375296   
O64      O      0.796560000000     0.720650000000     0.208490000000    -0.404147   
C169     C      0.813370000000     0.744870000000     0.188000000000     0.394162   
C170     C      0.855270000000     0.755790000000     0.179830000000    -0.168172   
C171     C      0.874010000000     0.777510000000     0.153485000000     0.110699   
H106     H      0.860770000000     0.785530000000     0.140415000000     0.00570718 
C172     C      0.912380000000     0.786330000000     0.147835000000    -0.210551   
H107     H      0.924870000000     0.800430000000     0.130565000000     0.101253   
C173     C      0.932770000000     0.775150000000     0.166590000000     0.172151   
C174     C      0.913980000000     0.754060000000     0.191350000000    -0.211565   
H108     H      0.927570000000     0.746330000000     0.204265000000     0.110462   
C175     C      0.875200000000     0.743490000000     0.198260000000     0.113615   
H109     H      0.862870000000     0.728230000000     0.215165000000    -0.00349806 
C176     C      0.975700000000     0.786730000000     0.159910000000    -0.191059   
H110     H      0.975970000000     0.772830000000     0.141965000000     0.0888855  
H111     H      0.990370000000     0.814830000000     0.155515000000     0.0899177  
C177     C      0.012810000000     0.806790000000     0.206480000000    -0.182301   
H112     H      0.011570000000     0.792730000000     0.224715000000     0.0791616  
H113     H      0.996270000000     0.818530000000     0.209515000000     0.0876543  
C178     C      0.054290000000     0.839430000000     0.202620000000     0.149909   
C179     C      0.073560000000     0.867080000000     0.223985000000    -0.196102   
H114     H      0.060870000000     0.865230000000     0.242065000000     0.0915702  
C180     C      0.111900000000     0.898150000000     0.219555000000     0.0905829  
H115     H      0.123870000000     0.917030000000     0.234565000000     0.0132069  
C181     C      0.131850000000     0.901760000000     0.194720000000    -0.128057   
C182     C      0.114480000000     0.874510000000     0.171915000000     0.0762546  
H116     H      0.128070000000     0.876530000000     0.154215000000     0.0159558  
C183     C      0.075860000000     0.843950000000     0.176500000000    -0.175524   
H117     H      0.063670000000     0.825430000000     0.161265000000     0.0976648  
C184     C      0.996680000000     0.742580000000     0.183850000000     0.0572034  
C185     C      0.019040000000     0.736610000000     0.205330000000    -0.0472948  
H118     H      0.033670000000     0.756630000000     0.219115000000     0.0517633  
C186     C      0.020180000000     0.702110000000     0.206715000000    -0.0907299  
C187     C      0.999020000000     0.672400000000     0.185345000000     0.0179556  
H119     H      0.000170000000     0.649130000000     0.185415000000     0.0232647  
C188     C      0.976760000000     0.678220000000     0.164440000000    -0.0778059  
C189     C      0.974970000000     0.712300000000     0.163815000000    -0.0573827  
H120     H      0.958970000000     0.715130000000     0.149765000000     0.0654876  
C190     C      0.174440000000     0.935730000000     0.190920000000     0.306324   
C191     C      0.953720000000     0.646640000000     0.141270000000     0.321349   
C192     C      0.043560000000     0.696410000000     0.231390000000     0.375917   
N8       N      0.995940000000     0.778720000000     0.183160000000    -0.077847   
Mn17     Mn     0.407650000000     0.002750000000     0.379515000000     0.730867   
Mn18     Mn     0.408960000000     0.086660000000     0.350225000000     0.93094    
O65      O      0.858620000000     0.272060000000     0.332145000000    -0.324654   
O66      O      0.857420000000     0.293190000000     0.378185000000    -0.323883   
O67      O      0.596900000000     0.983250000000     0.290720000000    -0.323698   
O68      O      0.624960000000     0.949850000000     0.306135000000    -0.413381   
O69      O      0.712690000000     0.998850000000     0.398050000000    -0.384678   
O70      O      0.725070000000     0.056290000000     0.417280000000    -0.402039   
O71      O      0.465770000000     0.094830000000     0.338525000000    -0.375404   
O72      O      0.463220000000     0.053990000000     0.375160000000    -0.404166   
C193     C      0.480030000000     0.078210000000     0.354670000000     0.394196   
C194     C      0.521930000000     0.089130000000     0.346500000000    -0.168172   
C195     C      0.540670000000     0.110850000000     0.320155000000     0.110698   
H121     H      0.527430000000     0.118870000000     0.307085000000     0.00571017 
C196     C      0.579040000000     0.119670000000     0.314505000000    -0.21054    
H122     H      0.591530000000     0.133770000000     0.297235000000     0.101246   
C197     C      0.599430000000     0.108490000000     0.333260000000     0.172136   
C198     C      0.580640000000     0.087400000000     0.358020000000    -0.21155    
H123     H      0.594230000000     0.079670000000     0.370935000000     0.110458   
C199     C      0.541860000000     0.076830000000     0.364930000000     0.113611   
H124     H      0.529530000000     0.061570000000     0.381835000000    -0.00349018 
C200     C      0.642360000000     0.120070000000     0.326580000000    -0.191027   
H125     H      0.642630000000     0.106170000000     0.308635000000     0.0888712  
H126     H      0.657030000000     0.148170000000     0.322185000000     0.0898922  
C201     C      0.679470000000     0.140130000000     0.373150000000    -0.182061   
H127     H      0.678230000000     0.126070000000     0.391385000000     0.079116   
H128     H      0.662930000000     0.151870000000     0.376185000000     0.0875437  
C202     C      0.720950000000     0.172770000000     0.369290000000     0.149816   
C203     C      0.740220000000     0.200420000000     0.390655000000    -0.196012   
H129     H      0.727530000000     0.198570000000     0.408735000000     0.0915576  
C204     C      0.778560000000     0.231490000000     0.386225000000     0.090522   
H130     H      0.790530000000     0.250370000000     0.401235000000     0.0132389  
C205     C      0.798510000000     0.235100000000     0.361390000000    -0.128006   
C206     C      0.781140000000     0.207850000000     0.338585000000     0.0762028  
H131     H      0.794730000000     0.209870000000     0.320885000000     0.0159819  
C207     C      0.742520000000     0.177290000000     0.343170000000    -0.175446   
H132     H      0.730330000000     0.158770000000     0.327935000000     0.0976553  
C208     C      0.663340000000     0.075920000000     0.350520000000     0.0571728  
C209     C      0.685700000000     0.069950000000     0.372000000000    -0.0472494  
H133     H      0.700330000000     0.089970000000     0.385785000000     0.0517626  
C210     C      0.686840000000     0.035450000000     0.373385000000    -0.0906454  
C211     C      0.665680000000     0.005740000000     0.352015000000     0.0178088  
H134     H      0.666830000000     0.982470000000     0.352085000000     0.0233377  
C212     C      0.643420000000     0.011560000000     0.331110000000    -0.0776632  
C213     C      0.641630000000     0.045640000000     0.330485000000    -0.0574462  
H135     H      0.625630000000     0.048470000000     0.316435000000     0.065519   
C214     C      0.841100000000     0.269070000000     0.357590000000     0.306309   
C215     C      0.620380000000     0.979980000000     0.307940000000     0.321207   
C216     C      0.710220000000     0.029750000000     0.398060000000     0.375991   
N9       N      0.662600000000     0.112060000000     0.349830000000    -0.077907   
Mn19     Mn     0.261760000000     0.336080000000     0.296180000000     0.730726   
Mn20     Mn     0.344370000000     0.419990000000     0.266890000000     0.930907   
O73      O      0.080100000000     0.605390000000     0.248810000000    -0.324694   
O74      O      0.102430000000     0.626520000000     0.294850000000    -0.323924   
O75      O      0.053010000000     0.316580000000     0.207385000000    -0.323723   
O76      O      0.991550000000     0.283180000000     0.222800000000    -0.413377   
O77      O      0.952820000000     0.332180000000     0.314715000000    -0.384605   
O78      O      0.997880000000     0.389620000000     0.333945000000    -0.401976   
O79      O      0.295720000000     0.428160000000     0.255190000000    -0.375333   
O80      O      0.257430000000     0.387320000000     0.291825000000    -0.404149   
C217     C      0.264840000000     0.411540000000     0.271335000000     0.394167   
C218     C      0.233860000000     0.422460000000     0.263165000000    -0.168164   
C219     C      0.236840000000     0.444180000000     0.236820000000     0.110685   
H136     H      0.258100000000     0.452200000000     0.223750000000     0.00571076 
C220     C      0.207290000000     0.453000000000     0.231170000000    -0.210532   
H137     H      0.208900000000     0.467100000000     0.213900000000     0.10124    
C221     C      0.175720000000     0.441820000000     0.249925000000     0.172123   
C222     C      0.173420000000     0.420730000000     0.274685000000    -0.211543   
H138     H      0.152100000000     0.413000000000     0.287600000000     0.110447   
C223     C      0.201630000000     0.410160000000     0.281595000000     0.113598   
H139     H      0.198700000000     0.394900000000     0.298500000000    -0.00349555 
C224     C      0.144370000000     0.453400000000     0.243245000000    -0.191016   
H140     H      0.130200000000     0.439500000000     0.225300000000     0.0888612  
H141     H      0.157800000000     0.481500000000     0.238850000000     0.089888   
C225     C      0.127320000000     0.473460000000     0.289815000000    -0.182048   
H142     H      0.114500000000     0.459400000000     0.308050000000     0.079104   
H143     H      0.155600000000     0.485200000000     0.292850000000     0.0875388  
C226     C      0.118480000000     0.506100000000     0.285955000000     0.149804   
C227     C      0.126860000000     0.533750000000     0.307320000000    -0.196005   
H144     H      0.137700000000     0.531900000000     0.325400000000     0.0915505  
C228     C      0.119590000000     0.564820000000     0.302890000000     0.090512   
H145     H      0.126500000000     0.583700000000     0.317900000000     0.0132394  
C229     C      0.103250000000     0.568430000000     0.278055000000    -0.128002   
C230     C      0.093370000000     0.541180000000     0.255250000000     0.0761929  
H146     H      0.081800000000     0.543200000000     0.237550000000     0.0159767  
C231     C      0.101430000000     0.510620000000     0.259835000000    -0.175441   
H147     H      0.095100000000     0.492100000000     0.244600000000     0.0976469  
C232     C      0.079240000000     0.409250000000     0.267185000000     0.0572072  
C233     C      0.050910000000     0.403280000000     0.288665000000    -0.0473114  
H148     H      0.056300000000     0.423300000000     0.302450000000     0.0517663  
C234     C      0.015270000000     0.368780000000     0.290050000000    -0.0905839  
C235     C      0.006720000000     0.339070000000     0.268680000000     0.0175088  
H149     H      0.982300000000     0.315800000000     0.268750000000     0.0235153  
C236     C      0.034800000000     0.344890000000     0.247775000000    -0.0776054  
C237     C      0.070670000000     0.378970000000     0.247150000000    -0.0575074  
H150     H      0.089500000000     0.381800000000     0.233100000000     0.0655243  
C238     C      0.094630000000     0.602400000000     0.274255000000     0.306302   
C239     C      0.026260000000     0.313310000000     0.224605000000     0.321174   
C240     C      0.986190000000     0.363080000000     0.314725000000     0.375916   
N10      N      0.116120000000     0.445390000000     0.266495000000    -0.0779174  
Mn21     Mn     0.928430000000     0.669410000000     0.462845000000     0.730805   
Mn22     Mn     0.011030000000     0.753330000000     0.433560000000     0.930921   
O81      O      0.746770000000     0.938720000000     0.415475000000    -0.324596   
O82      O      0.769100000000     0.959850000000     0.461515000000    -0.323874   
O83      O      0.719680000000     0.649910000000     0.374050000000    -0.323741   
O84      O      0.658220000000     0.616510000000     0.389465000000    -0.413456   
O85      O      0.619490000000     0.665510000000     0.481380000000    -0.384613   
O86      O      0.664550000000     0.722950000000     0.000610000000    -0.401964   
O87      O      0.962390000000     0.761490000000     0.421855000000    -0.375398   
O88      O      0.924100000000     0.720650000000     0.458490000000    -0.404163   
C241     C      0.931510000000     0.744870000000     0.438000000000     0.3942     
C242     C      0.900530000000     0.755790000000     0.429830000000    -0.168169   
C243     C      0.903510000000     0.777510000000     0.403485000000     0.110694   
H151     H      0.924770000000     0.785530000000     0.390415000000     0.00571844 
C244     C      0.873960000000     0.786330000000     0.397835000000    -0.210536   
H152     H      0.875570000000     0.800430000000     0.380565000000     0.101246   
C245     C      0.842390000000     0.775150000000     0.416590000000     0.172131   
C246     C      0.840090000000     0.754060000000     0.441350000000    -0.211548   
H153     H      0.818770000000     0.746330000000     0.454265000000     0.110452   
C247     C      0.868300000000     0.743490000000     0.448260000000     0.113606   
H154     H      0.865370000000     0.728230000000     0.465165000000    -0.00349599 
C248     C      0.811040000000     0.786730000000     0.409910000000    -0.191023   
H155     H      0.796870000000     0.772830000000     0.391965000000     0.088866   
H156     H      0.824470000000     0.814830000000     0.405515000000     0.0898909  
C249     C      0.793990000000     0.806790000000     0.456480000000    -0.182061   
H157     H      0.781170000000     0.792730000000     0.474715000000     0.0791123  
H158     H      0.822270000000     0.818530000000     0.459515000000     0.0875437  
C250     C      0.785150000000     0.839430000000     0.452620000000     0.149821   
C251     C      0.793530000000     0.867080000000     0.473985000000    -0.196022   
H159     H      0.804370000000     0.865230000000     0.492065000000     0.091558   
C252     C      0.786260000000     0.898150000000     0.469555000000     0.0905347  
H160     H      0.793170000000     0.917030000000     0.484565000000     0.0132282  
C253     C      0.769920000000     0.901760000000     0.444720000000    -0.128024   
C254     C      0.760040000000     0.874510000000     0.421915000000     0.0762125  
H161     H      0.748470000000     0.876530000000     0.404215000000     0.0159731  
C255     C      0.768100000000     0.843950000000     0.426500000000    -0.175454   
H162     H      0.761770000000     0.825430000000     0.411265000000     0.0976556  
C256     C      0.745910000000     0.742580000000     0.433850000000     0.0571864  
C257     C      0.717580000000     0.736610000000     0.455330000000    -0.0472947  
H163     H      0.722970000000     0.756630000000     0.469115000000     0.0517737  
C258     C      0.681940000000     0.702110000000     0.456715000000    -0.0905777  
C259     C      0.673390000000     0.672400000000     0.435345000000     0.0176639  
H164     H      0.648970000000     0.649130000000     0.435415000000     0.0234141  
C260     C      0.701470000000     0.678220000000     0.414440000000    -0.0776855  
C261     C      0.737340000000     0.712300000000     0.413815000000    -0.0574549  
H165     H      0.756170000000     0.715130000000     0.399765000000     0.0655088  
C262     C      0.761300000000     0.935730000000     0.440920000000     0.30632    
C263     C      0.692930000000     0.646640000000     0.391270000000     0.321275   
C264     C      0.652860000000     0.696410000000     0.481390000000     0.375866   
N11      N      0.782790000000     0.778720000000     0.433160000000    -0.0779106  
Mn23     Mn     0.595100000000     0.002750000000     0.129515000000     0.730778   
Mn24     Mn     0.677700000000     0.086660000000     0.100225000000     0.930849   
O89      O      0.413430000000     0.272060000000     0.082145000000    -0.324685   
O90      O      0.435760000000     0.293190000000     0.128185000000    -0.323914   
O91      O      0.386340000000     0.983250000000     0.040720000000    -0.323733   
O92      O      0.324880000000     0.949850000000     0.056135000000    -0.413382   
O93      O      0.286150000000     0.998850000000     0.148050000000    -0.384675   
O94      O      0.331210000000     0.056290000000     0.167280000000    -0.402048   
O95      O      0.629050000000     0.094830000000     0.088525000000    -0.375324   
O96      O      0.590760000000     0.053990000000     0.125160000000    -0.404118   
C265     C      0.598170000000     0.078210000000     0.104670000000     0.39415    
C266     C      0.567190000000     0.089130000000     0.096500000000    -0.168147   
C267     C      0.570170000000     0.110850000000     0.070155000000     0.110679   
H166     H      0.591430000000     0.118870000000     0.057085000000     0.00571616 
C268     C      0.540620000000     0.119670000000     0.064505000000    -0.210525   
H167     H      0.542230000000     0.133770000000     0.047235000000     0.10124    
C269     C      0.509050000000     0.108490000000     0.083260000000     0.172124   
C270     C      0.506750000000     0.087400000000     0.108020000000    -0.211533   
H168     H      0.485430000000     0.079670000000     0.120935000000     0.110451   
C271     C      0.534960000000     0.076830000000     0.114930000000     0.113592   
H169     H      0.532030000000     0.061570000000     0.131835000000    -0.00348038 
C272     C      0.477700000000     0.120070000000     0.076580000000    -0.19102    
H170     H      0.463530000000     0.106170000000     0.058635000000     0.0888692  
H171     H      0.491130000000     0.148170000000     0.072185000000     0.0898894  
C273     C      0.460650000000     0.140130000000     0.123150000000    -0.182054   
H172     H      0.447830000000     0.126070000000     0.141385000000     0.0791102  
H173     H      0.488930000000     0.151870000000     0.126185000000     0.0875406  
C274     C      0.451810000000     0.172770000000     0.119290000000     0.149809   
C275     C      0.460190000000     0.200420000000     0.140655000000    -0.196004   
H174     H      0.471030000000     0.198570000000     0.158735000000     0.0915529  
C276     C      0.452920000000     0.231490000000     0.136225000000     0.0905139  
H175     H      0.459830000000     0.250370000000     0.151235000000     0.0132424  
C277     C      0.436580000000     0.235100000000     0.111390000000    -0.127996   
C278     C      0.426700000000     0.207850000000     0.088585000000     0.0761961  
H176     H      0.415130000000     0.209870000000     0.070885000000     0.015984   
C279     C      0.434760000000     0.177290000000     0.093170000000    -0.175439   
H177     H      0.428430000000     0.158770000000     0.077935000000     0.0976528  
C280     C      0.412570000000     0.075920000000     0.100520000000     0.0571644  
C281     C      0.384240000000     0.069950000000     0.122000000000    -0.0472389  
H178     H      0.389630000000     0.089970000000     0.135785000000     0.0517545  
C282     C      0.348600000000     0.035450000000     0.123385000000    -0.0906595  
C283     C      0.340050000000     0.005740000000     0.102015000000     0.0178243  
H179     H      0.315630000000     0.982470000000     0.102085000000     0.0233302  
C284     C      0.368130000000     0.011560000000     0.081110000000    -0.0776838  
C285     C      0.404000000000     0.045640000000     0.080485000000    -0.0574324  
H180     H      0.422830000000     0.048470000000     0.066435000000     0.0655147  
C286     C      0.427960000000     0.269070000000     0.107590000000     0.306306   
C287     C      0.359590000000     0.979980000000     0.057940000000     0.321237   
C288     C      0.319520000000     0.029750000000     0.148060000000     0.376006   
N12      N      0.449450000000     0.112060000000     0.099830000000    -0.0779077  
Mn25     Mn     0.074320000000     0.738240000000     0.296180000000     0.730733   
Mn26     Mn     0.075630000000     0.655630000000     0.266890000000     0.930909   
O97      O      0.525290000000     0.919900000000     0.248810000000    -0.324642   
O98      O      0.524090000000     0.897570000000     0.294850000000    -0.323883   
O99      O      0.263570000000     0.946990000000     0.207385000000    -0.32369    
O100     O      0.291630000000     0.008450000000     0.222800000000    -0.413343   
O101     O      0.379360000000     0.047180000000     0.314715000000    -0.384612   
O102     O      0.391740000000     0.002120000000     0.333945000000    -0.401983   
O103     O      0.132440000000     0.704280000000     0.255190000000    -0.375376   
O104     O      0.129890000000     0.742570000000     0.291825000000    -0.40416    
C289     C      0.146700000000     0.735160000000     0.271335000000     0.394187   
C290     C      0.188600000000     0.766140000000     0.263165000000    -0.168173   
C291     C      0.207340000000     0.763160000000     0.236820000000     0.110692   
H181     H      0.194100000000     0.741900000000     0.223750000000     0.00570773 
C292     C      0.245710000000     0.792710000000     0.231170000000    -0.210538   
H182     H      0.258200000000     0.791100000000     0.213900000000     0.101242   
C293     C      0.266100000000     0.824280000000     0.249925000000     0.172128   
C294     C      0.247310000000     0.826580000000     0.274685000000    -0.211549   
H183     H      0.260900000000     0.847900000000     0.287600000000     0.110449   
C295     C      0.208530000000     0.798370000000     0.281595000000     0.113605   
H184     H      0.196200000000     0.801300000000     0.298500000000    -0.00349923 
C296     C      0.309030000000     0.855630000000     0.243245000000    -0.191019   
H185     H      0.309300000000     0.869800000000     0.225300000000     0.088862   
H186     H      0.323700000000     0.842200000000     0.238850000000     0.0898886  
C297     C      0.346140000000     0.872680000000     0.289815000000    -0.18205    
H187     H      0.344900000000     0.885500000000     0.308050000000     0.0791039  
H188     H      0.329600000000     0.844400000000     0.292850000000     0.0875391  
C298     C      0.387620000000     0.881520000000     0.285955000000     0.149808   
C299     C      0.406890000000     0.873140000000     0.307320000000    -0.196011   
H189     H      0.394200000000     0.862300000000     0.325400000000     0.0915521  
C300     C      0.445230000000     0.880410000000     0.302890000000     0.0905206  
H190     H      0.457200000000     0.873500000000     0.317900000000     0.0132357  
C301     C      0.465180000000     0.896750000000     0.278055000000    -0.128012   
C302     C      0.447810000000     0.906630000000     0.255250000000     0.0762004  
H191     H      0.461400000000     0.918200000000     0.237550000000     0.015973   
C303     C      0.409190000000     0.898570000000     0.259835000000    -0.175446   
H192     H      0.397000000000     0.904900000000     0.244600000000     0.0976484  
C304     C      0.330010000000     0.920760000000     0.267185000000     0.0572042  
C305     C      0.352370000000     0.949090000000     0.288665000000    -0.0473076  
H193     H      0.367000000000     0.943700000000     0.302450000000     0.0517636  
C306     C      0.353510000000     0.984730000000     0.290050000000    -0.090591   
C307     C      0.332350000000     0.993280000000     0.268680000000     0.0175122  
H194     H      0.333500000000     0.017700000000     0.268750000000     0.023508   
C308     C      0.310090000000     0.965200000000     0.247775000000    -0.0776102  
C309     C      0.308300000000     0.929330000000     0.247150000000    -0.0575053  
H195     H      0.292300000000     0.910500000000     0.233100000000     0.0655232  
C310     C      0.507770000000     0.905370000000     0.274255000000     0.306313   
C311     C      0.287050000000     0.973740000000     0.224605000000     0.321165   
C312     C      0.376890000000     0.013810000000     0.314725000000     0.375923   
N13      N      0.329270000000     0.883880000000     0.266495000000    -0.0779164  
Mn27     Mn     0.740990000000     0.071570000000     0.462845000000     0.73079    
Mn28     Mn     0.742290000000     0.988970000000     0.433560000000     0.930766   
O105     O      0.191960000000     0.253230000000     0.415475000000    -0.324697   
O106     O      0.190760000000     0.230900000000     0.461515000000    -0.323938   
O107     O      0.930240000000     0.280320000000     0.374050000000    -0.323727   
O108     O      0.958300000000     0.341780000000     0.389465000000    -0.413447   
O109     O      0.046030000000     0.380510000000     0.481380000000    -0.384632   
O110     O      0.058410000000     0.335450000000     0.000610000000    -0.401992   
O111     O      0.799110000000     0.037610000000     0.421855000000    -0.375302   
O112     O      0.796560000000     0.075900000000     0.458490000000    -0.40416    
C313     C      0.813370000000     0.068490000000     0.438000000000     0.394159   
C314     C      0.855270000000     0.099470000000     0.429830000000    -0.168159   
C315     C      0.874010000000     0.096490000000     0.403485000000     0.110697   
H196     H      0.860770000000     0.075230000000     0.390415000000     0.00572196 
C316     C      0.912380000000     0.126040000000     0.397835000000    -0.210545   
H197     H      0.924870000000     0.124430000000     0.380565000000     0.101259   
C317     C      0.932770000000     0.157610000000     0.416590000000     0.172152   
C318     C      0.913980000000     0.159910000000     0.441350000000    -0.21156    
H198     H      0.927570000000     0.181230000000     0.454265000000     0.110462   
C319     C      0.875200000000     0.131700000000     0.448260000000     0.113611   
H199     H      0.862870000000     0.134630000000     0.465165000000    -0.00349415 
C320     C      0.975700000000     0.188960000000     0.409910000000    -0.191062   
H200     H      0.975970000000     0.203130000000     0.391965000000     0.0888876  
H201     H      0.990370000000     0.175530000000     0.405515000000     0.0899245  
C321     C      0.012810000000     0.206010000000     0.456480000000    -0.182307   
H202     H      0.011570000000     0.218830000000     0.474715000000     0.0791666  
H203     H      0.996270000000     0.177730000000     0.459515000000     0.0876628  
C322     C      0.054290000000     0.214850000000     0.452620000000     0.149911   
C323     C      0.073560000000     0.206470000000     0.473985000000    -0.196093   
H204     H      0.060870000000     0.195630000000     0.492065000000     0.0915768  
C324     C      0.111900000000     0.213740000000     0.469555000000     0.0905769  
H205     H      0.123870000000     0.206830000000     0.484565000000     0.0132205  
C325     C      0.131850000000     0.230080000000     0.444720000000    -0.128041   
C326     C      0.114480000000     0.239960000000     0.421915000000     0.0762497  
H206     H      0.128070000000     0.251530000000     0.404215000000     0.0159618  
C327     C      0.075860000000     0.231900000000     0.426500000000    -0.175519   
H207     H      0.063670000000     0.238230000000     0.411265000000     0.0976648  
C328     C      0.996680000000     0.254090000000     0.433850000000     0.0572089  
C329     C      0.019040000000     0.282420000000     0.455330000000    -0.0473019  
H208     H      0.033670000000     0.277030000000     0.469115000000     0.0517694  
C330     C      0.020180000000     0.318060000000     0.456715000000    -0.0907235  
C331     C      0.999020000000     0.326610000000     0.435345000000     0.0179473  
H209     H      0.000170000000     0.351030000000     0.435415000000     0.0232721  
C332     C      0.976760000000     0.298530000000     0.414440000000    -0.0777937  
C333     C      0.974970000000     0.262660000000     0.413815000000    -0.0573907  
H210     H      0.958970000000     0.243830000000     0.399765000000     0.0654893  
C334     C      0.174440000000     0.238700000000     0.440920000000     0.306314   
C335     C      0.953720000000     0.307070000000     0.391270000000     0.32133    
C336     C      0.043560000000     0.347140000000     0.481390000000     0.375913   
N14      N      0.995940000000     0.217210000000     0.433160000000    -0.0778459  
Mn29     Mn     0.407650000000     0.404900000000     0.129515000000     0.730787   
Mn30     Mn     0.408960000000     0.322300000000     0.100225000000     0.930987   
O113     O      0.858620000000     0.586570000000     0.082145000000    -0.324637   
O114     O      0.857420000000     0.564240000000     0.128185000000    -0.323883   
O115     O      0.596900000000     0.613660000000     0.040720000000    -0.323774   
O116     O      0.624960000000     0.675120000000     0.056135000000    -0.413419   
O117     O      0.712690000000     0.713850000000     0.148050000000    -0.384601   
O118     O      0.725070000000     0.668790000000     0.167280000000    -0.401989   
O119     O      0.465770000000     0.370950000000     0.088525000000    -0.37539    
O120     O      0.463220000000     0.409240000000     0.125160000000    -0.404193   
C337     C      0.480030000000     0.401830000000     0.104670000000     0.394205   
C338     C      0.521930000000     0.432810000000     0.096500000000    -0.16818    
C339     C      0.540670000000     0.429830000000     0.070155000000     0.110698   
H211     H      0.527430000000     0.408570000000     0.057085000000     0.00570546 
C340     C      0.579040000000     0.459380000000     0.064505000000    -0.210543   
H212     H      0.591530000000     0.457770000000     0.047235000000     0.101243   
C341     C      0.599430000000     0.490950000000     0.083260000000     0.172133   
C342     C      0.580640000000     0.493250000000     0.108020000000    -0.211553   
H213     H      0.594230000000     0.514570000000     0.120935000000     0.110453   
C343     C      0.541860000000     0.465040000000     0.114930000000     0.113612   
H214     H      0.529530000000     0.467970000000     0.131835000000    -0.00349709 
C344     C      0.642360000000     0.522300000000     0.076580000000    -0.191023   
H215     H      0.642630000000     0.536470000000     0.058635000000     0.088865   
H216     H      0.657030000000     0.508870000000     0.072185000000     0.0898895  
C345     C      0.679470000000     0.539350000000     0.123150000000    -0.182053   
H217     H      0.678230000000     0.552170000000     0.141385000000     0.0791078  
H218     H      0.662930000000     0.511070000000     0.126185000000     0.0875399  
C346     C      0.720950000000     0.548190000000     0.119290000000     0.149809   
C347     C      0.740220000000     0.539810000000     0.140655000000    -0.196009   
H219     H      0.727530000000     0.528970000000     0.158735000000     0.0915527  
C348     C      0.778560000000     0.547080000000     0.136225000000     0.0905192  
H220     H      0.790530000000     0.540170000000     0.151235000000     0.0132388  
C349     C      0.798510000000     0.563420000000     0.111390000000    -0.128007   
C350     C      0.781140000000     0.573300000000     0.088585000000     0.0762     
H221     H      0.794730000000     0.584870000000     0.070885000000     0.0159805  
C351     C      0.742520000000     0.565240000000     0.093170000000    -0.175443   
H222     H      0.730330000000     0.571570000000     0.077935000000     0.0976519  
C352     C      0.663340000000     0.587430000000     0.100520000000     0.057186   
C353     C      0.685700000000     0.615760000000     0.122000000000    -0.0472912  
H223     H      0.700330000000     0.610370000000     0.135785000000     0.0517694  
C354     C      0.686840000000     0.651400000000     0.123385000000    -0.0905796  
C355     C      0.665680000000     0.659950000000     0.102015000000     0.0176625  
H224     H      0.666830000000     0.684370000000     0.102085000000     0.0234225  
C356     C      0.643420000000     0.631870000000     0.081110000000    -0.0776807  
C357     C      0.641630000000     0.596000000000     0.080485000000    -0.0574558  
H225     H      0.625630000000     0.577170000000     0.066435000000     0.0655091  
C358     C      0.841100000000     0.572040000000     0.107590000000     0.306312   
C359     C      0.620380000000     0.640410000000     0.057940000000     0.321271   
C360     C      0.710220000000     0.680480000000     0.148060000000     0.375882   
N15      N      0.662600000000     0.550550000000     0.099830000000    -0.0779117  
Mn31     Mn     0.663920000000     0.925680000000     0.296180000000     0.730679   
Mn32     Mn     0.580010000000     0.924370000000     0.266890000000     0.930869   
O121     O      0.394610000000     0.474710000000     0.248810000000    -0.324659   
O122     O      0.373480000000     0.475910000000     0.294850000000    -0.323872   
O123     O      0.683420000000     0.736430000000     0.207385000000    -0.323751   
O124     O      0.716820000000     0.708370000000     0.222800000000    -0.413371   
O125     O      0.667820000000     0.620640000000     0.314715000000    -0.38461    
O126     O      0.610380000000     0.608260000000     0.333945000000    -0.401989   
O127     O      0.571840000000     0.867560000000     0.255190000000    -0.375399   
O128     O      0.612680000000     0.870110000000     0.291825000000    -0.404165   
C361     C      0.588460000000     0.853300000000     0.271335000000     0.394186   
C362     C      0.577540000000     0.811400000000     0.263165000000    -0.168171   
C363     C      0.555820000000     0.792660000000     0.236820000000     0.110693   
H226     H      0.547800000000     0.805900000000     0.223750000000     0.00570884 
C364     C      0.547000000000     0.754290000000     0.231170000000    -0.210539   
H227     H      0.532900000000     0.741800000000     0.213900000000     0.101244   
C365     C      0.558180000000     0.733900000000     0.249925000000     0.172131   
C366     C      0.579270000000     0.752690000000     0.274685000000    -0.21155    
H228     H      0.587000000000     0.739100000000     0.287600000000     0.110451   
C367     C      0.589840000000     0.791470000000     0.281595000000     0.113605   
H229     H      0.605100000000     0.803800000000     0.298500000000    -0.00349714 
C368     C      0.546600000000     0.690970000000     0.243245000000    -0.191023   
H230     H      0.560500000000     0.690700000000     0.225300000000     0.0888663  
H231     H      0.518500000000     0.676300000000     0.238850000000     0.089891   
C369     C      0.526540000000     0.653860000000     0.289815000000    -0.182053   
H232     H      0.540600000000     0.655100000000     0.308050000000     0.0791096  
H233     H      0.514800000000     0.670400000000     0.292850000000     0.0875408  
C370     C      0.493900000000     0.612380000000     0.285955000000     0.149811   
C371     C      0.466250000000     0.593110000000     0.307320000000    -0.196006   
H234     H      0.468100000000     0.605800000000     0.325400000000     0.0915549  
C372     C      0.435180000000     0.554770000000     0.302890000000     0.0905189  
H235     H      0.416300000000     0.542800000000     0.317900000000     0.0132412  
C373     C      0.431570000000     0.534820000000     0.278055000000    -0.128002   
C374     C      0.458820000000     0.552190000000     0.255250000000     0.0761997  
H236     H      0.456800000000     0.538600000000     0.237550000000     0.0159819  
C375     C      0.489380000000     0.590810000000     0.259835000000    -0.175441   
H237     H      0.507900000000     0.603000000000     0.244600000000     0.0976529  
C376     C      0.590750000000     0.669990000000     0.267185000000     0.0571927  
C377     C      0.596720000000     0.647630000000     0.288665000000    -0.0473004  
H238     H      0.576700000000     0.633000000000     0.302450000000     0.0517769  
C378     C      0.631220000000     0.646490000000     0.290050000000    -0.0905712  
C379     C      0.660930000000     0.667650000000     0.268680000000     0.0176514  
H239     H      0.684200000000     0.666500000000     0.268750000000     0.0234292  
C380     C      0.655110000000     0.689910000000     0.247775000000    -0.077667   
C381     C      0.621030000000     0.691700000000     0.247150000000    -0.0574649  
H240     H      0.618200000000     0.707700000000     0.233100000000     0.0655124  
C382     C      0.397600000000     0.492230000000     0.274255000000     0.306309   
C383     C      0.686690000000     0.712950000000     0.224605000000     0.321253   
C384     C      0.636920000000     0.623110000000     0.314725000000     0.375873   
N16      N      0.554610000000     0.670730000000     0.266495000000    -0.0779125  
Mn33     Mn     0.330590000000     0.259010000000     0.462845000000     0.730716   
Mn34     Mn     0.246670000000     0.257710000000     0.433560000000     0.930933   
O129     O      0.061280000000     0.808040000000     0.415475000000    -0.324658   
O130     O      0.040150000000     0.809240000000     0.461515000000    -0.32396    
O131     O      0.350090000000     0.069760000000     0.374050000000    -0.323773   
O132     O      0.383490000000     0.041700000000     0.389465000000    -0.413486   
O133     O      0.334490000000     0.953970000000     0.481380000000    -0.384623   
O134     O      0.277050000000     0.941590000000     0.000610000000    -0.40198    
O135     O      0.238510000000     0.200890000000     0.421855000000    -0.375296   
O136     O      0.279350000000     0.203440000000     0.458490000000    -0.404147   
C385     C      0.255130000000     0.186630000000     0.438000000000     0.394162   
C386     C      0.244210000000     0.144730000000     0.429830000000    -0.168172   
C387     C      0.222490000000     0.125990000000     0.403485000000     0.110699   
H241     H      0.214470000000     0.139230000000     0.390415000000     0.00570694 
C388     C      0.213670000000     0.087620000000     0.397835000000    -0.210551   
H242     H      0.199570000000     0.075130000000     0.380565000000     0.101252   
C389     C      0.224850000000     0.067230000000     0.416590000000     0.172151   
C390     C      0.245940000000     0.086020000000     0.441350000000    -0.211565   
H243     H      0.253670000000     0.072430000000     0.454265000000     0.110462   
C391     C      0.256510000000     0.124800000000     0.448260000000     0.113615   
H244     H      0.271770000000     0.137130000000     0.465165000000    -0.00349805 
C392     C      0.213270000000     0.024300000000     0.409910000000    -0.191059   
H245     H      0.227170000000     0.024030000000     0.391965000000     0.0888851  
H246     H      0.185170000000     0.009630000000     0.405515000000     0.0899174  
C393     C      0.193210000000     0.987190000000     0.456480000000    -0.182301   
H247     H      0.207270000000     0.988430000000     0.474715000000     0.0791616  
H248     H      0.181470000000     0.003730000000     0.459515000000     0.0876544  
C394     C      0.160570000000     0.945710000000     0.452620000000     0.149909   
C395     C      0.132920000000     0.926440000000     0.473985000000    -0.196102   
H249     H      0.134770000000     0.939130000000     0.492065000000     0.0915702  
C396     C      0.101850000000     0.888100000000     0.469555000000     0.090583   
H250     H      0.082970000000     0.876130000000     0.484565000000     0.0132069  
C397     C      0.098240000000     0.868150000000     0.444720000000    -0.128057   
C398     C      0.125490000000     0.885520000000     0.421915000000     0.0762546  
H251     H      0.123470000000     0.871930000000     0.404215000000     0.0159554  
C399     C      0.156050000000     0.924140000000     0.426500000000    -0.175525   
H252     H      0.174570000000     0.936330000000     0.411265000000     0.0976645  
C400     C      0.257420000000     0.003320000000     0.433850000000     0.0572032  
C401     C      0.263390000000     0.980960000000     0.455330000000    -0.0472948  
H253     H      0.243370000000     0.966330000000     0.469115000000     0.0517633  
C402     C      0.297890000000     0.979820000000     0.456715000000    -0.0907301  
C403     C      0.327600000000     0.000980000000     0.435345000000     0.0179558  
H254     H      0.350870000000     0.999830000000     0.435415000000     0.0232645  
C404     C      0.321780000000     0.023240000000     0.414440000000    -0.0778062  
C405     C      0.287700000000     0.025030000000     0.413815000000    -0.0573826  
H255     H      0.284870000000     0.041030000000     0.399765000000     0.0654874  
C406     C      0.064270000000     0.825560000000     0.440920000000     0.306324   
C407     C      0.353360000000     0.046280000000     0.391270000000     0.321349   
C408     C      0.303590000000     0.956440000000     0.481390000000     0.375917   
N17      N      0.221280000000     0.004060000000     0.433160000000    -0.077847   
Mn35     Mn     0.997250000000     0.592350000000     0.129515000000     0.730867   
Mn36     Mn     0.913340000000     0.591040000000     0.100225000000     0.93094    
O137     O      0.727940000000     0.141380000000     0.082145000000    -0.324654   
O138     O      0.706810000000     0.142580000000     0.128185000000    -0.323883   
O139     O      0.016750000000     0.403100000000     0.040720000000    -0.323697   
O140     O      0.050150000000     0.375040000000     0.056135000000    -0.41338    
O141     O      0.001150000000     0.287310000000     0.148050000000    -0.384678   
O142     O      0.943710000000     0.274930000000     0.167280000000    -0.402039   
O143     O      0.905170000000     0.534230000000     0.088525000000    -0.375405   
O144     O      0.946010000000     0.536780000000     0.125160000000    -0.404166   
C409     C      0.921790000000     0.519970000000     0.104670000000     0.394195   
C410     C      0.910870000000     0.478070000000     0.096500000000    -0.168171   
C411     C      0.889150000000     0.459330000000     0.070155000000     0.110697   
H256     H      0.881130000000     0.472570000000     0.057085000000     0.00570944 
C412     C      0.880330000000     0.420960000000     0.064505000000    -0.210539   
H257     H      0.866230000000     0.408470000000     0.047235000000     0.101244   
C413     C      0.891510000000     0.400570000000     0.083260000000     0.172135   
C414     C      0.912600000000     0.419360000000     0.108020000000    -0.211549   
H258     H      0.920330000000     0.405770000000     0.120935000000     0.110457   
C415     C      0.923170000000     0.458140000000     0.114930000000     0.113611   
H259     H      0.938430000000     0.470470000000     0.131835000000    -0.00348996 
C416     C      0.879930000000     0.357640000000     0.076580000000    -0.191026   
H260     H      0.893830000000     0.357370000000     0.058635000000     0.0888703  
H261     H      0.851830000000     0.342970000000     0.072185000000     0.0898912  
C417     C      0.859870000000     0.320530000000     0.123150000000    -0.182061   
H262     H      0.873930000000     0.321770000000     0.141385000000     0.0791161  
H263     H      0.848130000000     0.337070000000     0.126185000000     0.0875436  
C418     C      0.827230000000     0.279050000000     0.119290000000     0.149816   
C419     C      0.799580000000     0.259780000000     0.140655000000    -0.196012   
H264     H      0.801430000000     0.272470000000     0.158735000000     0.0915576  
C420     C      0.768510000000     0.221440000000     0.136225000000     0.090522   
H265     H      0.749630000000     0.209470000000     0.151235000000     0.0132389  
C421     C      0.764900000000     0.201490000000     0.111390000000    -0.128006   
C422     C      0.792150000000     0.218860000000     0.088585000000     0.0762027  
H266     H      0.790130000000     0.205270000000     0.070885000000     0.0159816  
C423     C      0.822710000000     0.257480000000     0.093170000000    -0.175446   
H267     H      0.841230000000     0.269670000000     0.077935000000     0.0976549  
C424     C      0.924080000000     0.336660000000     0.100520000000     0.0571728  
C425     C      0.930050000000     0.314300000000     0.122000000000    -0.0472495  
H268     H      0.910030000000     0.299670000000     0.135785000000     0.0517627  
C426     C      0.964550000000     0.313160000000     0.123385000000    -0.0906451  
C427     C      0.994260000000     0.334320000000     0.102015000000     0.0178086  
H269     H      0.017530000000     0.333170000000     0.102085000000     0.023338   
C428     C      0.988440000000     0.356580000000     0.081110000000    -0.0776631  
C429     C      0.954360000000     0.358370000000     0.080485000000    -0.0574462  
H270     H      0.951530000000     0.374370000000     0.066435000000     0.0655189  
C430     C      0.730930000000     0.158900000000     0.107590000000     0.306309   
C431     C      0.020020000000     0.379620000000     0.057940000000     0.321208   
C432     C      0.970250000000     0.289780000000     0.148060000000     0.375991   
N18      N      0.887940000000     0.337400000000     0.099830000000    -0.0779072  
Mn1      Mn     0.663920000000     0.738240000000     0.546180000000     0.730726   
Mn2      Mn     0.580010000000     0.655630000000     0.516890000000     0.930907   
O1       O      0.394610000000     0.919900000000     0.998810000000    -0.324716   
O2       O      0.373480000000     0.897570000000     0.544850000000    -0.323924   
O3       O      0.683420000000     0.946990000000     0.957385000000    -0.323725   
O4       O      0.716820000000     0.008450000000     0.972800000000    -0.413382   
O5       O      0.667820000000     0.047180000000     0.564715000000    -0.384605   
O6       O      0.610380000000     0.002120000000     0.583945000000    -0.401976   
O7       O      0.571840000000     0.704280000000     0.505190000000    -0.375333   
O8       O      0.612680000000     0.742570000000     0.541825000000    -0.404149   
C1       C      0.588460000000     0.735160000000     0.521335000000     0.394167   
C2       C      0.577540000000     0.766140000000     0.513165000000    -0.168164   
C3       C      0.555820000000     0.763160000000     0.986820000000     0.110629   
H1       H      0.547800000000     0.741900000000     0.973750000000     0.00572486 
C4       C      0.547000000000     0.792710000000     0.981170000000    -0.210489   
H2       H      0.532900000000     0.791100000000     0.963900000000     0.101223   
C5       C      0.558180000000     0.824280000000     0.999925000000     0.172069   
C6       C      0.579270000000     0.826580000000     0.524685000000    -0.211543   
H3       H      0.587000000000     0.847900000000     0.537600000000     0.110447   
C7       C      0.589840000000     0.798370000000     0.531595000000     0.113598   
H4       H      0.605100000000     0.801300000000     0.548500000000    -0.00349551 
C8       C      0.546600000000     0.855630000000     0.993245000000    -0.191005   
H5       H      0.560500000000     0.869800000000     0.975300000000     0.0888556  
H6       H      0.518500000000     0.842200000000     0.988850000000     0.089879   
C9       C      0.526540000000     0.872680000000     0.539815000000    -0.182048   
H7       H      0.540600000000     0.885500000000     0.558050000000     0.079104   
H8       H      0.514800000000     0.844400000000     0.542850000000     0.0875388  
C10      C      0.493900000000     0.881520000000     0.535955000000     0.149804   
C11      C      0.466250000000     0.873140000000     0.557320000000    -0.196005   
H9       H      0.468100000000     0.862300000000     0.575400000000     0.0915506  
C12      C      0.435180000000     0.880410000000     0.552890000000     0.090512   
H10      H      0.416300000000     0.873500000000     0.567900000000     0.0132394  
C13      C      0.431570000000     0.896750000000     0.528055000000    -0.128002   
C14      C      0.458820000000     0.906630000000     0.505250000000     0.0761929  
H11      H      0.456800000000     0.918200000000     0.987550000000     0.0159609  
C15      C      0.489380000000     0.898570000000     0.509835000000    -0.175441   
H12      H      0.507900000000     0.904900000000     0.994600000000     0.0976302  
C16      C      0.590750000000     0.920760000000     0.517185000000     0.0572072  
C17      C      0.596720000000     0.949090000000     0.538665000000    -0.0473114  
H13      H      0.576700000000     0.943700000000     0.552450000000     0.0517664  
C18      C      0.631220000000     0.984730000000     0.540050000000    -0.0905839  
C19      C      0.660930000000     0.993280000000     0.518680000000     0.0175087  
H14      H      0.684200000000     0.017700000000     0.518750000000     0.0235154  
C20      C      0.655110000000     0.965200000000     0.997775000000    -0.0776224  
C21      C      0.621030000000     0.929330000000     0.997150000000    -0.0575261  
H15      H      0.618200000000     0.910500000000     0.983100000000     0.0655277  
C22      C      0.397600000000     0.905370000000     0.524255000000     0.306302   
C23      C      0.686690000000     0.973740000000     0.974605000000     0.321176   
C24      C      0.636920000000     0.013810000000     0.564725000000     0.375916   
N1       N      0.554610000000     0.883880000000     0.516495000000    -0.0779174  
Mn3      Mn     0.330590000000     0.071570000000     0.712845000000     0.730805   
Mn4      Mn     0.246670000000     0.988970000000     0.683560000000     0.930921   
O9       O      0.061280000000     0.253230000000     0.665475000000    -0.324595   
O10      O      0.040150000000     0.230900000000     0.711515000000    -0.323874   
O11      O      0.350090000000     0.280320000000     0.624050000000    -0.323741   
O12      O      0.383490000000     0.341780000000     0.639465000000    -0.413456   
O13      O      0.334490000000     0.380510000000     0.731380000000    -0.384612   
O14      O      0.277050000000     0.335450000000     0.750610000000    -0.401972   
O15      O      0.238510000000     0.037610000000     0.671855000000    -0.375398   
O16      O      0.279350000000     0.075900000000     0.708490000000    -0.404163   
C25      C      0.255130000000     0.068490000000     0.688000000000     0.3942     
C26      C      0.244210000000     0.099470000000     0.679830000000    -0.168168   
C27      C      0.222490000000     0.096490000000     0.653485000000     0.110694   
H16      H      0.214470000000     0.075230000000     0.640415000000     0.00571848 
C28      C      0.213670000000     0.126040000000     0.647835000000    -0.210536   
H17      H      0.199570000000     0.124430000000     0.630565000000     0.101246   
C29      C      0.224850000000     0.157610000000     0.666590000000     0.172131   
C30      C      0.245940000000     0.159910000000     0.691350000000    -0.211548   
H18      H      0.253670000000     0.181230000000     0.704265000000     0.110452   
C31      C      0.256510000000     0.131700000000     0.698260000000     0.113606   
H19      H      0.271770000000     0.134630000000     0.715165000000    -0.00349589 
C32      C      0.213270000000     0.188960000000     0.659910000000    -0.191023   
H20      H      0.227170000000     0.203130000000     0.641965000000     0.0888661  
H21      H      0.185170000000     0.175530000000     0.655515000000     0.089891   
C33      C      0.193210000000     0.206010000000     0.706480000000    -0.182061   
H22      H      0.207270000000     0.218830000000     0.724715000000     0.0791124  
H23      H      0.181470000000     0.177730000000     0.709515000000     0.0875438  
C34      C      0.160570000000     0.214850000000     0.702620000000     0.149821   
C35      C      0.132920000000     0.206470000000     0.723985000000    -0.196022   
H24      H      0.134770000000     0.195630000000     0.742065000000     0.091558   
C36      C      0.101850000000     0.213740000000     0.719555000000     0.0905348  
H25      H      0.082970000000     0.206830000000     0.734565000000     0.0132283  
C37      C      0.098240000000     0.230080000000     0.694720000000    -0.128024   
C38      C      0.125490000000     0.239960000000     0.671915000000     0.0762125  
H26      H      0.123470000000     0.251530000000     0.654215000000     0.0159732  
C39      C      0.156050000000     0.231900000000     0.676500000000    -0.175454   
H27      H      0.174570000000     0.238230000000     0.661265000000     0.0976557  
C40      C      0.257420000000     0.254090000000     0.683850000000     0.0571864  
C41      C      0.263390000000     0.282420000000     0.705330000000    -0.0472947  
H28      H      0.243370000000     0.277030000000     0.719115000000     0.0517737  
C42      C      0.297890000000     0.318060000000     0.706715000000    -0.0905775  
C43      C      0.327600000000     0.326610000000     0.685345000000     0.017664   
H29      H      0.350870000000     0.351030000000     0.685415000000     0.0234142  
C44      C      0.321780000000     0.298530000000     0.664440000000    -0.0776854  
C45      C      0.287700000000     0.262660000000     0.663815000000    -0.0574549  
H30      H      0.284870000000     0.243830000000     0.649765000000     0.0655088  
C46      C      0.064270000000     0.238700000000     0.690920000000     0.30632    
C47      C      0.353360000000     0.307070000000     0.641270000000     0.321275   
C48      C      0.303590000000     0.347140000000     0.731390000000     0.375866   
N2       N      0.221280000000     0.217210000000     0.683160000000    -0.0779105  
Mn5      Mn     0.997250000000     0.404900000000     0.879515000000     0.730775   
Mn6      Mn     0.913340000000     0.322300000000     0.850225000000     0.930848   
O17      O      0.727940000000     0.586570000000     0.832145000000    -0.324685   
O18      O      0.706810000000     0.564240000000     0.878185000000    -0.323916   
O19      O      0.016750000000     0.613660000000     0.790720000000    -0.323733   
O20      O      0.050150000000     0.675120000000     0.806135000000    -0.413382   
O21      O      0.001150000000     0.713850000000     0.898050000000    -0.384675   
O22      O      0.943710000000     0.668790000000     0.917280000000    -0.402048   
O23      O      0.905170000000     0.370950000000     0.838525000000    -0.375324   
O24      O      0.946010000000     0.409240000000     0.875160000000    -0.404119   
C49      C      0.921790000000     0.401830000000     0.854670000000     0.394149   
C50      C      0.910870000000     0.432810000000     0.846500000000    -0.168148   
C51      C      0.889150000000     0.429830000000     0.820155000000     0.11068    
H31      H      0.881130000000     0.408570000000     0.807085000000     0.00571673 
C52      C      0.880330000000     0.459380000000     0.814505000000    -0.210526   
H32      H      0.866230000000     0.457770000000     0.797235000000     0.101242   
C53      C      0.891510000000     0.490950000000     0.833260000000     0.172125   
C54      C      0.912600000000     0.493250000000     0.858020000000    -0.211535   
H33      H      0.920330000000     0.514570000000     0.870935000000     0.110451   
C55      C      0.923170000000     0.465040000000     0.864930000000     0.113592   
H34      H      0.938430000000     0.467970000000     0.881835000000    -0.00348233 
C56      C      0.879930000000     0.522300000000     0.826580000000    -0.191021   
H35      H      0.893830000000     0.536470000000     0.808635000000     0.0888702  
H36      H      0.851830000000     0.508870000000     0.822185000000     0.0898902  
C57      C      0.859870000000     0.539350000000     0.873150000000    -0.182051   
H37      H      0.873930000000     0.552170000000     0.891385000000     0.0791078  
H38      H      0.848130000000     0.511070000000     0.876185000000     0.0875385  
C58      C      0.827230000000     0.548190000000     0.869290000000     0.149807   
C59      C      0.799580000000     0.539810000000     0.890655000000    -0.196003   
H39      H      0.801430000000     0.528970000000     0.908735000000     0.0915493  
C60      C      0.768510000000     0.547080000000     0.886225000000     0.0905125  
H40      H      0.749630000000     0.540170000000     0.901235000000     0.0132401  
C61      C      0.764900000000     0.563420000000     0.861390000000    -0.127996   
C62      C      0.792150000000     0.573300000000     0.838585000000     0.0761954  
H41      H      0.790130000000     0.584870000000     0.820885000000     0.0159847  
C63      C      0.822710000000     0.565240000000     0.843170000000    -0.175438   
H42      H      0.841230000000     0.571570000000     0.827935000000     0.0976528  
C64      C      0.924080000000     0.587430000000     0.850520000000     0.0571643  
C65      C      0.930050000000     0.615760000000     0.872000000000    -0.047239   
H43      H      0.910030000000     0.610370000000     0.885785000000     0.0517538  
C66      C      0.964550000000     0.651400000000     0.873385000000    -0.0906599  
C67      C      0.994260000000     0.659950000000     0.852015000000     0.0178243  
H44      H      0.017530000000     0.684370000000     0.852085000000     0.0233299  
C68      C      0.988440000000     0.631870000000     0.831110000000    -0.0776839  
C69      C      0.954360000000     0.596000000000     0.830485000000    -0.0574325  
H45      H      0.951530000000     0.577170000000     0.816435000000     0.0655149  
C70      C      0.730930000000     0.572040000000     0.857590000000     0.306306   
C71      C      0.020020000000     0.640410000000     0.807940000000     0.321237   
C72      C      0.970250000000     0.680480000000     0.898060000000     0.376005   
N3       N      0.887940000000     0.550550000000     0.849830000000    -0.077908   
Mn7      Mn     0.261760000000     0.925680000000     0.546180000000     0.730733   
Mn8      Mn     0.344370000000     0.924370000000     0.516890000000     0.930909   
O25      O      0.080100000000     0.474710000000     0.998810000000    -0.324664   
O26      O      0.102430000000     0.475910000000     0.544850000000    -0.323883   
O27      O      0.053010000000     0.736430000000     0.957385000000    -0.323692   
O28      O      0.991550000000     0.708370000000     0.972800000000    -0.413348   
O29      O      0.952820000000     0.620640000000     0.564715000000    -0.384612   
O30      O      0.997880000000     0.608260000000     0.583945000000    -0.401983   
O31      O      0.295720000000     0.867560000000     0.505190000000    -0.375376   
O32      O      0.257430000000     0.870110000000     0.541825000000    -0.40416    
C73      C      0.264840000000     0.853300000000     0.521335000000     0.394187   
C74      C      0.233860000000     0.811400000000     0.513165000000    -0.168173   
C75      C      0.236840000000     0.792660000000     0.986820000000     0.110636   
H46      H      0.258100000000     0.805900000000     0.973750000000     0.00572185 
C76      C      0.207290000000     0.754290000000     0.981170000000    -0.210495   
H47      H      0.208900000000     0.741800000000     0.963900000000     0.101225   
C77      C      0.175720000000     0.733900000000     0.999925000000     0.172074   
C78      C      0.173420000000     0.752690000000     0.524685000000    -0.211549   
H48      H      0.152100000000     0.739100000000     0.537600000000     0.110449   
C79      C      0.201630000000     0.791470000000     0.531595000000     0.113605   
H49      H      0.198700000000     0.803800000000     0.548500000000    -0.00349919 
C80      C      0.144370000000     0.690970000000     0.993245000000    -0.191007   
H50      H      0.130200000000     0.690700000000     0.975300000000     0.0888564  
H51      H      0.157800000000     0.676300000000     0.988850000000     0.0898797  
C81      C      0.127320000000     0.653860000000     0.539815000000    -0.18205    
H52      H      0.114500000000     0.655100000000     0.558050000000     0.0791039  
H53      H      0.155600000000     0.670400000000     0.542850000000     0.0875391  
C82      C      0.118480000000     0.612380000000     0.535955000000     0.149808   
C83      C      0.126860000000     0.593110000000     0.557320000000    -0.196011   
H54      H      0.137700000000     0.605800000000     0.575400000000     0.0915521  
C84      C      0.119590000000     0.554770000000     0.552890000000     0.0905207  
H55      H      0.126500000000     0.542800000000     0.567900000000     0.0132357  
C85      C      0.103250000000     0.534820000000     0.528055000000    -0.128012   
C86      C      0.093370000000     0.552190000000     0.505250000000     0.0762004  
H56      H      0.081800000000     0.538600000000     0.987550000000     0.0159572  
C87      C      0.101430000000     0.590810000000     0.509835000000    -0.175446   
H57      H      0.095100000000     0.603000000000     0.994600000000     0.0976317  
C88      C      0.079240000000     0.669990000000     0.517185000000     0.0572042  
C89      C      0.050910000000     0.647630000000     0.538665000000    -0.0473076  
H58      H      0.056300000000     0.633000000000     0.552450000000     0.0517636  
C90      C      0.015270000000     0.646490000000     0.540050000000    -0.090591   
C91      C      0.006720000000     0.667650000000     0.518680000000     0.0175121  
H59      H      0.982300000000     0.666500000000     0.518750000000     0.023508   
C92      C      0.034800000000     0.689910000000     0.997775000000    -0.0776273  
C93      C      0.070670000000     0.691700000000     0.997150000000    -0.0575239  
H60      H      0.089500000000     0.707700000000     0.983100000000     0.0655267  
C94      C      0.094630000000     0.492230000000     0.524255000000     0.306313   
C95      C      0.026260000000     0.712950000000     0.974605000000     0.321167   
C96      C      0.986190000000     0.623110000000     0.564725000000     0.375924   
N4       N      0.116120000000     0.670730000000     0.516495000000    -0.0779164  
Mn9      Mn     0.928430000000     0.259010000000     0.712845000000     0.73079    
Mn10     Mn     0.011030000000     0.257710000000     0.683560000000     0.930766   
O33      O      0.746770000000     0.808040000000     0.665475000000    -0.324697   
O34      O      0.769100000000     0.809240000000     0.711515000000    -0.323938   
O35      O      0.719680000000     0.069760000000     0.624050000000    -0.323727   
O36      O      0.658220000000     0.041700000000     0.639465000000    -0.413447   
O37      O      0.619490000000     0.953970000000     0.731380000000    -0.384632   
O38      O      0.664550000000     0.941590000000     0.750610000000    -0.402001   
O39      O      0.962390000000     0.200890000000     0.671855000000    -0.375302   
O40      O      0.924100000000     0.203440000000     0.708490000000    -0.40416    
C97      C      0.931510000000     0.186630000000     0.688000000000     0.39416    
C98      C      0.900530000000     0.144730000000     0.679830000000    -0.168159   
C99      C      0.903510000000     0.125990000000     0.653485000000     0.110697   
H61      H      0.924770000000     0.139230000000     0.640415000000     0.00572199 
C100     C      0.873960000000     0.087620000000     0.647835000000    -0.210545   
H62      H      0.875570000000     0.075130000000     0.630565000000     0.101259   
C101     C      0.842390000000     0.067230000000     0.666590000000     0.172152   
C102     C      0.840090000000     0.086020000000     0.691350000000    -0.21156    
H63      H      0.818770000000     0.072430000000     0.704265000000     0.110462   
C103     C      0.868300000000     0.124800000000     0.698260000000     0.113612   
H64      H      0.865370000000     0.137130000000     0.715165000000    -0.00349405 
C104     C      0.811040000000     0.024300000000     0.659910000000    -0.191062   
H65      H      0.796870000000     0.024030000000     0.641965000000     0.0888876  
H66      H      0.824470000000     0.009630000000     0.655515000000     0.0899246  
C105     C      0.793990000000     0.987190000000     0.706480000000    -0.182307   
H67      H      0.781170000000     0.988430000000     0.724715000000     0.0791667  
H68      H      0.822270000000     0.003730000000     0.709515000000     0.0876628  
C106     C      0.785150000000     0.945710000000     0.702620000000     0.149911   
C107     C      0.793530000000     0.926440000000     0.723985000000    -0.196093   
H69      H      0.804370000000     0.939130000000     0.742065000000     0.0915769  
C108     C      0.786260000000     0.888100000000     0.719555000000     0.0905769  
H70      H      0.793170000000     0.876130000000     0.734565000000     0.0132206  
C109     C      0.769920000000     0.868150000000     0.694720000000    -0.12804    
C110     C      0.760040000000     0.885520000000     0.671915000000     0.0762497  
H71      H      0.748470000000     0.871930000000     0.654215000000     0.0159619  
C111     C      0.768100000000     0.924140000000     0.676500000000    -0.175519   
H72      H      0.761770000000     0.936330000000     0.661265000000     0.0976648  
C112     C      0.745910000000     0.003320000000     0.683850000000     0.057209   
C113     C      0.717580000000     0.980960000000     0.705330000000    -0.0473019  
H73      H      0.722970000000     0.966330000000     0.719115000000     0.0517694  
C114     C      0.681940000000     0.979820000000     0.706715000000    -0.0907233  
C115     C      0.673390000000     0.000980000000     0.685345000000     0.0179473  
H74      H      0.648970000000     0.999830000000     0.685415000000     0.0232722  
C116     C      0.701470000000     0.023240000000     0.664440000000    -0.0777936  
C117     C      0.737340000000     0.025030000000     0.663815000000    -0.0573907  
H75      H      0.756170000000     0.041030000000     0.649765000000     0.0654894  
C118     C      0.761300000000     0.825560000000     0.690920000000     0.306314   
C119     C      0.692930000000     0.046280000000     0.641270000000     0.32133    
C120     C      0.652860000000     0.956440000000     0.731390000000     0.375913   
N5       N      0.782790000000     0.004060000000     0.683160000000    -0.0778459  
Mn11     Mn     0.595100000000     0.592350000000     0.879515000000     0.730784   
Mn12     Mn     0.677700000000     0.591040000000     0.850225000000     0.930987   
O41      O      0.413430000000     0.141380000000     0.832145000000    -0.324637   
O42      O      0.435760000000     0.142580000000     0.878185000000    -0.323885   
O43      O      0.386340000000     0.403100000000     0.790720000000    -0.323774   
O44      O      0.324880000000     0.375040000000     0.806135000000    -0.413419   
O45      O      0.286150000000     0.287310000000     0.898050000000    -0.384601   
O46      O      0.331210000000     0.274930000000     0.917280000000    -0.401989   
O47      O      0.629050000000     0.534230000000     0.838525000000    -0.375389   
O48      O      0.590760000000     0.536780000000     0.875160000000    -0.404194   
C121     C      0.598170000000     0.519970000000     0.854670000000     0.394205   
C122     C      0.567190000000     0.478070000000     0.846500000000    -0.168181   
C123     C      0.570170000000     0.459330000000     0.820155000000     0.110699   
H76      H      0.591430000000     0.472570000000     0.807085000000     0.00570602 
C124     C      0.540620000000     0.420960000000     0.814505000000    -0.210544   
H77      H      0.542230000000     0.408470000000     0.797235000000     0.101244   
C125     C      0.509050000000     0.400570000000     0.833260000000     0.172134   
C126     C      0.506750000000     0.419360000000     0.858020000000    -0.211555   
H78      H      0.485430000000     0.405770000000     0.870935000000     0.110452   
C127     C      0.534960000000     0.458140000000     0.864930000000     0.113613   
H79      H      0.532030000000     0.470470000000     0.881835000000    -0.00349903 
C128     C      0.477700000000     0.357640000000     0.826580000000    -0.191024   
H80      H      0.463530000000     0.357370000000     0.808635000000     0.088866   
H81      H      0.491130000000     0.342970000000     0.822185000000     0.0898903  
C129     C      0.460650000000     0.320530000000     0.873150000000    -0.18205    
H82      H      0.447830000000     0.321770000000     0.891385000000     0.0791054  
H83      H      0.488930000000     0.337070000000     0.876185000000     0.0875378  
C130     C      0.451810000000     0.279050000000     0.869290000000     0.149807   
C131     C      0.460190000000     0.259780000000     0.890655000000    -0.196008   
H84      H      0.471030000000     0.272470000000     0.908735000000     0.0915491  
C132     C      0.452920000000     0.221440000000     0.886225000000     0.0905178  
H85      H      0.459830000000     0.209470000000     0.901235000000     0.0132365  
C133     C      0.436580000000     0.201490000000     0.861390000000    -0.128007   
C134     C      0.426700000000     0.218860000000     0.838585000000     0.0761993  
H86      H      0.415130000000     0.205270000000     0.820885000000     0.0159811  
C135     C      0.434760000000     0.257480000000     0.843170000000    -0.175442   
H87      H      0.428430000000     0.269670000000     0.827935000000     0.0976518  
C136     C      0.412570000000     0.336660000000     0.850520000000     0.0571858  
C137     C      0.384240000000     0.314300000000     0.872000000000    -0.0472913  
H88      H      0.389630000000     0.299670000000     0.885785000000     0.0517687  
C138     C      0.348600000000     0.313160000000     0.873385000000    -0.0905799  
C139     C      0.340050000000     0.334320000000     0.852015000000     0.0176624  
H89      H      0.315630000000     0.333170000000     0.852085000000     0.0234222  
C140     C      0.368130000000     0.356580000000     0.831110000000    -0.0776809  
C141     C      0.404000000000     0.358370000000     0.830485000000    -0.0574559  
H90      H      0.422830000000     0.374370000000     0.816435000000     0.0655093  
C142     C      0.427960000000     0.158900000000     0.857590000000     0.306312   
C143     C      0.359590000000     0.379620000000     0.807940000000     0.321271   
C144     C      0.319520000000     0.289780000000     0.898060000000     0.375881   
N6       N      0.449450000000     0.337400000000     0.849830000000    -0.077912   
Mn13     Mn     0.074320000000     0.336080000000     0.546180000000     0.730679   
Mn14     Mn     0.075630000000     0.419990000000     0.516890000000     0.930869   
O49      O      0.525290000000     0.605390000000     0.998810000000    -0.324681   
O50      O      0.524090000000     0.626520000000     0.544850000000    -0.323871   
O51      O      0.263570000000     0.316580000000     0.957385000000    -0.323753   
O52      O      0.291630000000     0.283180000000     0.972800000000    -0.413376   
O53      O      0.379360000000     0.332180000000     0.564715000000    -0.38461    
O54      O      0.391740000000     0.389620000000     0.583945000000    -0.401989   
O55      O      0.132440000000     0.428160000000     0.505190000000    -0.3754     
O56      O      0.129890000000     0.387320000000     0.541825000000    -0.404165   
C145     C      0.146700000000     0.411540000000     0.521335000000     0.394186   
C146     C      0.188600000000     0.422460000000     0.513165000000    -0.168171   
C147     C      0.207340000000     0.444180000000     0.986820000000     0.110637   
H91      H      0.194100000000     0.452200000000     0.973750000000     0.00572294 
C148     C      0.245710000000     0.453000000000     0.981170000000    -0.210496   
H92      H      0.258200000000     0.467100000000     0.963900000000     0.101227   
C149     C      0.266100000000     0.441820000000     0.999925000000     0.172076   
C150     C      0.247310000000     0.420730000000     0.524685000000    -0.21155    
H93      H      0.260900000000     0.413000000000     0.537600000000     0.110451   
C151     C      0.208530000000     0.410160000000     0.531595000000     0.113605   
H94      H      0.196200000000     0.394900000000     0.548500000000    -0.0034971  
C152     C      0.309030000000     0.453400000000     0.993245000000    -0.191011   
H95      H      0.309300000000     0.439500000000     0.975300000000     0.0888608  
H96      H      0.323700000000     0.481500000000     0.988850000000     0.0898821  
C153     C      0.346140000000     0.473460000000     0.539815000000    -0.182053   
H97      H      0.344900000000     0.459400000000     0.558050000000     0.0791097  
H98      H      0.329600000000     0.485200000000     0.542850000000     0.0875408  
C154     C      0.387620000000     0.506100000000     0.535955000000     0.149811   
C155     C      0.406890000000     0.533750000000     0.557320000000    -0.196006   
H99      H      0.394200000000     0.531900000000     0.575400000000     0.091555   
C156     C      0.445230000000     0.564820000000     0.552890000000     0.0905189  
H100     H      0.457200000000     0.583700000000     0.567900000000     0.0132413  
C157     C      0.465180000000     0.568430000000     0.528055000000    -0.128002   
C158     C      0.447810000000     0.541180000000     0.505250000000     0.0761997  
H101     H      0.461400000000     0.543200000000     0.987550000000     0.0159661  
C159     C      0.409190000000     0.510620000000     0.509835000000    -0.175442   
H102     H      0.397000000000     0.492100000000     0.994600000000     0.0976362  
C160     C      0.330010000000     0.409250000000     0.517185000000     0.0571927  
C161     C      0.352370000000     0.403280000000     0.538665000000    -0.0473004  
H103     H      0.367000000000     0.423300000000     0.552450000000     0.0517769  
C162     C      0.353510000000     0.368780000000     0.540050000000    -0.0905712  
C163     C      0.332350000000     0.339070000000     0.518680000000     0.0176514  
H104     H      0.333500000000     0.315800000000     0.518750000000     0.0234292  
C164     C      0.310090000000     0.344890000000     0.997775000000    -0.0776838  
C165     C      0.308300000000     0.378970000000     0.997150000000    -0.0574836  
H105     H      0.292300000000     0.381800000000     0.983100000000     0.0655159  
C166     C      0.507770000000     0.602400000000     0.524255000000     0.306309   
C167     C      0.287050000000     0.313310000000     0.974605000000     0.321254   
C168     C      0.376890000000     0.363080000000     0.564725000000     0.375873   
N7       N      0.329270000000     0.445390000000     0.516495000000    -0.0779125  
Mn15     Mn     0.740990000000     0.669410000000     0.712845000000     0.730716   
Mn16     Mn     0.742290000000     0.753330000000     0.683560000000     0.930933   
O57      O      0.191960000000     0.938720000000     0.665475000000    -0.324658   
O58      O      0.190760000000     0.959850000000     0.711515000000    -0.32396    
O59      O      0.930240000000     0.649910000000     0.624050000000    -0.323773   
O60      O      0.958300000000     0.616510000000     0.639465000000    -0.413486   
O61      O      0.046030000000     0.665510000000     0.731380000000    -0.384623   
O62      O      0.058410000000     0.722950000000     0.750610000000    -0.401988   
O63      O      0.799110000000     0.761490000000     0.671855000000    -0.375296   
O64      O      0.796560000000     0.720650000000     0.708490000000    -0.404147   
C169     C      0.813370000000     0.744870000000     0.688000000000     0.394162   
C170     C      0.855270000000     0.755790000000     0.679830000000    -0.168172   
C171     C      0.874010000000     0.777510000000     0.653485000000     0.110699   
H106     H      0.860770000000     0.785530000000     0.640415000000     0.00570697 
C172     C      0.912380000000     0.786330000000     0.647835000000    -0.210551   
H107     H      0.924870000000     0.800430000000     0.630565000000     0.101252   
C173     C      0.932770000000     0.775150000000     0.666590000000     0.172151   
C174     C      0.913980000000     0.754060000000     0.691350000000    -0.211565   
H108     H      0.927570000000     0.746330000000     0.704265000000     0.110462   
C175     C      0.875200000000     0.743490000000     0.698260000000     0.113615   
H109     H      0.862870000000     0.728230000000     0.715165000000    -0.00349795 
C176     C      0.975700000000     0.786730000000     0.659910000000    -0.191059   
H110     H      0.975970000000     0.772830000000     0.641965000000     0.0888851  
H111     H      0.990370000000     0.814830000000     0.655515000000     0.0899175  
C177     C      0.012810000000     0.806790000000     0.706480000000    -0.182301   
H112     H      0.011570000000     0.792730000000     0.724715000000     0.0791617  
H113     H      0.996270000000     0.818530000000     0.709515000000     0.0876544  
C178     C      0.054290000000     0.839430000000     0.702620000000     0.149909   
C179     C      0.073560000000     0.867080000000     0.723985000000    -0.196102   
H114     H      0.060870000000     0.865230000000     0.742065000000     0.0915703  
C180     C      0.111900000000     0.898150000000     0.719555000000     0.090583   
H115     H      0.123870000000     0.917030000000     0.734565000000     0.0132069  
C181     C      0.131850000000     0.901760000000     0.694720000000    -0.128057   
C182     C      0.114480000000     0.874510000000     0.671915000000     0.0762546  
H116     H      0.128070000000     0.876530000000     0.654215000000     0.0159554  
C183     C      0.075860000000     0.843950000000     0.676500000000    -0.175525   
H117     H      0.063670000000     0.825430000000     0.661265000000     0.0976645  
C184     C      0.996680000000     0.742580000000     0.683850000000     0.0572033  
C185     C      0.019040000000     0.736610000000     0.705330000000    -0.0472948  
H118     H      0.033670000000     0.756630000000     0.719115000000     0.0517633  
C186     C      0.020180000000     0.702110000000     0.706715000000    -0.09073    
C187     C      0.999020000000     0.672400000000     0.685345000000     0.0179559  
H119     H      0.000170000000     0.649130000000     0.685415000000     0.0232646  
C188     C      0.976760000000     0.678220000000     0.664440000000    -0.0778061  
C189     C      0.974970000000     0.712300000000     0.663815000000    -0.0573826  
H120     H      0.958970000000     0.715130000000     0.649765000000     0.0654874  
C190     C      0.174440000000     0.935730000000     0.690920000000     0.306324   
C191     C      0.953720000000     0.646640000000     0.641270000000     0.321349   
C192     C      0.043560000000     0.696410000000     0.731390000000     0.375917   
N8       N      0.995940000000     0.778720000000     0.683160000000    -0.077847   
Mn17     Mn     0.407650000000     0.002750000000     0.879515000000     0.730864   
Mn18     Mn     0.408960000000     0.086660000000     0.850225000000     0.93094    
O65      O      0.858620000000     0.272060000000     0.832145000000    -0.324654   
O66      O      0.857420000000     0.293190000000     0.878185000000    -0.323885   
O67      O      0.596900000000     0.983250000000     0.790720000000    -0.323698   
O68      O      0.624960000000     0.949850000000     0.806135000000    -0.413381   
O69      O      0.712690000000     0.998850000000     0.898050000000    -0.384678   
O70      O      0.725070000000     0.056290000000     0.917280000000    -0.402038   
O71      O      0.465770000000     0.094830000000     0.838525000000    -0.375404   
O72      O      0.463220000000     0.053990000000     0.875160000000    -0.404167   
C193     C      0.480030000000     0.078210000000     0.854670000000     0.394195   
C194     C      0.521930000000     0.089130000000     0.846500000000    -0.168172   
C195     C      0.540670000000     0.110850000000     0.820155000000     0.110698   
H121     H      0.527430000000     0.118870000000     0.807085000000     0.00571001 
C196     C      0.579040000000     0.119670000000     0.814505000000    -0.21054    
H122     H      0.591530000000     0.133770000000     0.797235000000     0.101246   
C197     C      0.599430000000     0.108490000000     0.833260000000     0.172136   
C198     C      0.580640000000     0.087400000000     0.858020000000    -0.21155    
H123     H      0.594230000000     0.079670000000     0.870935000000     0.110457   
C199     C      0.541860000000     0.076830000000     0.864930000000     0.113611   
H124     H      0.529530000000     0.061570000000     0.881835000000    -0.0034919  
C200     C      0.642360000000     0.120070000000     0.826580000000    -0.191027   
H125     H      0.642630000000     0.106170000000     0.808635000000     0.0888713  
H126     H      0.657030000000     0.148170000000     0.822185000000     0.0898919  
C201     C      0.679470000000     0.140130000000     0.873150000000    -0.182058   
H127     H      0.678230000000     0.126070000000     0.891385000000     0.0791137  
H128     H      0.662930000000     0.151870000000     0.876185000000     0.0875414  
C202     C      0.720950000000     0.172770000000     0.869290000000     0.149814   
C203     C      0.740220000000     0.200420000000     0.890655000000    -0.196011   
H129     H      0.727530000000     0.198570000000     0.908735000000     0.0915539  
C204     C      0.778560000000     0.231490000000     0.886225000000     0.0905206  
H130     H      0.790530000000     0.250370000000     0.901235000000     0.0132365  
C205     C      0.798510000000     0.235100000000     0.861390000000    -0.128006   
C206     C      0.781140000000     0.207850000000     0.838585000000     0.076202   
H131     H      0.794730000000     0.209870000000     0.820885000000     0.0159822  
C207     C      0.742520000000     0.177290000000     0.843170000000    -0.175445   
H132     H      0.730330000000     0.158770000000     0.827935000000     0.0976549  
C208     C      0.663340000000     0.075920000000     0.850520000000     0.0571727  
C209     C      0.685700000000     0.069950000000     0.872000000000    -0.0472496  
H133     H      0.700330000000     0.089970000000     0.885785000000     0.051762   
C210     C      0.686840000000     0.035450000000     0.873385000000    -0.0906455  
C211     C      0.665680000000     0.005740000000     0.852015000000     0.0178086  
H134     H      0.666830000000     0.982470000000     0.852085000000     0.0233377  
C212     C      0.643420000000     0.011560000000     0.831110000000    -0.0776632  
C213     C      0.641630000000     0.045640000000     0.830485000000    -0.0574463  
H135     H      0.625630000000     0.048470000000     0.816435000000     0.0655191  
C214     C      0.841100000000     0.269070000000     0.857590000000     0.306309   
C215     C      0.620380000000     0.979980000000     0.807940000000     0.321207   
C216     C      0.710220000000     0.029750000000     0.898060000000     0.37599    
N9       N      0.662600000000     0.112060000000     0.849830000000    -0.0779075  
Mn19     Mn     0.261760000000     0.336080000000     0.796180000000     0.730727   
Mn20     Mn     0.344370000000     0.419990000000     0.766890000000     0.930907   
O73      O      0.080100000000     0.605390000000     0.748810000000    -0.324694   
O74      O      0.102430000000     0.626520000000     0.794850000000    -0.323925   
O75      O      0.053010000000     0.316580000000     0.707385000000    -0.323723   
O76      O      0.991550000000     0.283180000000     0.722800000000    -0.413377   
O77      O      0.952820000000     0.332180000000     0.814715000000    -0.384604   
O78      O      0.997880000000     0.389620000000     0.833945000000    -0.401975   
O79      O      0.295720000000     0.428160000000     0.755190000000    -0.375333   
O80      O      0.257430000000     0.387320000000     0.791825000000    -0.404149   
C217     C      0.264840000000     0.411540000000     0.771335000000     0.394167   
C218     C      0.233860000000     0.422460000000     0.763165000000    -0.168164   
C219     C      0.236840000000     0.444180000000     0.736820000000     0.110684   
H136     H      0.258100000000     0.452200000000     0.723750000000     0.00571071 
C220     C      0.207290000000     0.453000000000     0.731170000000    -0.210532   
H137     H      0.208900000000     0.467100000000     0.713900000000     0.10124    
C221     C      0.175720000000     0.441820000000     0.749925000000     0.172123   
C222     C      0.173420000000     0.420730000000     0.774685000000    -0.211543   
H138     H      0.152100000000     0.413000000000     0.787600000000     0.110447   
C223     C      0.201630000000     0.410160000000     0.781595000000     0.113598   
H139     H      0.198700000000     0.394900000000     0.798500000000    -0.00349562 
C224     C      0.144370000000     0.453400000000     0.743245000000    -0.191016   
H140     H      0.130200000000     0.439500000000     0.725300000000     0.0888611  
H141     H      0.157800000000     0.481500000000     0.738850000000     0.0898879  
C225     C      0.127320000000     0.473460000000     0.789815000000    -0.182047   
H142     H      0.114500000000     0.459400000000     0.808050000000     0.0791037  
H143     H      0.155600000000     0.485200000000     0.792850000000     0.0875385  
C226     C      0.118480000000     0.506100000000     0.785955000000     0.149804   
C227     C      0.126860000000     0.533750000000     0.807320000000    -0.196005   
H144     H      0.137700000000     0.531900000000     0.825400000000     0.0915499  
C228     C      0.119590000000     0.564820000000     0.802890000000     0.0905117  
H145     H      0.126500000000     0.583700000000     0.817900000000     0.0132391  
C229     C      0.103250000000     0.568430000000     0.778055000000    -0.128002   
C230     C      0.093370000000     0.541180000000     0.755250000000     0.0761927  
H146     H      0.081800000000     0.543200000000     0.737550000000     0.0159768  
C231     C      0.101430000000     0.510620000000     0.759835000000    -0.175441   
H147     H      0.095100000000     0.492100000000     0.744600000000     0.0976468  
C232     C      0.079240000000     0.409250000000     0.767185000000     0.0572073  
C233     C      0.050910000000     0.403280000000     0.788665000000    -0.0473114  
H148     H      0.056300000000     0.423300000000     0.802450000000     0.0517663  
C234     C      0.015270000000     0.368780000000     0.790050000000    -0.0905837  
C235     C      0.006720000000     0.339070000000     0.768680000000     0.0175087  
H149     H      0.982300000000     0.315800000000     0.768750000000     0.0235154  
C236     C      0.034800000000     0.344890000000     0.747775000000    -0.0776053  
C237     C      0.070670000000     0.378970000000     0.747150000000    -0.0575075  
H150     H      0.089500000000     0.381800000000     0.733100000000     0.0655243  
C238     C      0.094630000000     0.602400000000     0.774255000000     0.306302   
C239     C      0.026260000000     0.313310000000     0.724605000000     0.321174   
C240     C      0.986190000000     0.363080000000     0.814725000000     0.375916   
N10      N      0.116120000000     0.445390000000     0.766495000000    -0.0779175  
Mn21     Mn     0.928430000000     0.669410000000     0.962845000000     0.730792   
Mn22     Mn     0.011030000000     0.753330000000     0.933560000000     0.93092    
O81      O      0.746770000000     0.938720000000     0.915475000000    -0.324596   
O82      O      0.769100000000     0.959850000000     0.961515000000    -0.323879   
O83      O      0.719680000000     0.649910000000     0.874050000000    -0.323741   
O84      O      0.658220000000     0.616510000000     0.889465000000    -0.413457   
O85      O      0.619490000000     0.665510000000     0.981380000000    -0.384618   
O86      O      0.664550000000     0.722950000000     0.500610000000    -0.401973   
O87      O      0.962390000000     0.761490000000     0.921855000000    -0.375398   
O88      O      0.924100000000     0.720650000000     0.958490000000    -0.404166   
C241     C      0.931510000000     0.744870000000     0.938000000000     0.394199   
C242     C      0.900530000000     0.755790000000     0.929830000000    -0.168171   
C243     C      0.903510000000     0.777510000000     0.903485000000     0.110694   
H151     H      0.924770000000     0.785530000000     0.890415000000     0.00571803 
C244     C      0.873960000000     0.786330000000     0.897835000000    -0.210537   
H152     H      0.875570000000     0.800430000000     0.880565000000     0.101246   
C245     C      0.842390000000     0.775150000000     0.916590000000     0.172131   
C246     C      0.840090000000     0.754060000000     0.941350000000    -0.21155    
H153     H      0.818770000000     0.746330000000     0.954265000000     0.110449   
C247     C      0.868300000000     0.743490000000     0.948260000000     0.113606   
H154     H      0.865370000000     0.728230000000     0.965165000000    -0.00350077 
C248     C      0.811040000000     0.786730000000     0.909910000000    -0.191023   
H155     H      0.796870000000     0.772830000000     0.891965000000     0.088866   
H156     H      0.824470000000     0.814830000000     0.905515000000     0.0898904  
C249     C      0.793990000000     0.806790000000     0.956480000000    -0.182054   
H157     H      0.781170000000     0.792730000000     0.974715000000     0.0791059  
H158     H      0.822270000000     0.818530000000     0.959515000000     0.0875387  
C250     C      0.785150000000     0.839430000000     0.952620000000     0.149815   
C251     C      0.793530000000     0.867080000000     0.973985000000    -0.19602    
H159     H      0.804370000000     0.865230000000     0.992065000000     0.0915501  
C252     C      0.786260000000     0.898150000000     0.969555000000     0.090531   
H160     H      0.793170000000     0.917030000000     0.984565000000     0.0132234  
C253     C      0.769920000000     0.901760000000     0.944720000000    -0.128025   
C254     C      0.760040000000     0.874510000000     0.921915000000     0.0762101  
H161     H      0.748470000000     0.876530000000     0.904215000000     0.0159736  
C255     C      0.768100000000     0.843950000000     0.926500000000    -0.175452   
H162     H      0.761770000000     0.825430000000     0.911265000000     0.0976546  
C256     C      0.745910000000     0.742580000000     0.933850000000     0.0571865  
C257     C      0.717580000000     0.736610000000     0.955330000000    -0.0472977  
H163     H      0.722970000000     0.756630000000     0.969115000000     0.0517706  
C258     C      0.681940000000     0.702110000000     0.956715000000    -0.0905764  
C259     C      0.673390000000     0.672400000000     0.935345000000     0.0176612  
H164     H      0.648970000000     0.649130000000     0.935415000000     0.0234133  
C260     C      0.701470000000     0.678220000000     0.914440000000    -0.0776855  
C261     C      0.737340000000     0.712300000000     0.913815000000    -0.0574563  
H165     H      0.756170000000     0.715130000000     0.899765000000     0.065509   
C262     C      0.761300000000     0.935730000000     0.940920000000     0.30632    
C263     C      0.692930000000     0.646640000000     0.891270000000     0.321274   
C264     C      0.652860000000     0.696410000000     0.981390000000     0.37585    
N11      N      0.782790000000     0.778720000000     0.933160000000    -0.0779119  
Mn23     Mn     0.595100000000     0.002750000000     0.629515000000     0.730777   
Mn24     Mn     0.677700000000     0.086660000000     0.600225000000     0.930849   
O89      O      0.413430000000     0.272060000000     0.582145000000    -0.324685   
O90      O      0.435760000000     0.293190000000     0.628185000000    -0.323914   
O91      O      0.386340000000     0.983250000000     0.540720000000    -0.323733   
O92      O      0.324880000000     0.949850000000     0.556135000000    -0.413382   
O93      O      0.286150000000     0.998850000000     0.648050000000    -0.384675   
O94      O      0.331210000000     0.056290000000     0.667280000000    -0.402048   
O95      O      0.629050000000     0.094830000000     0.588525000000    -0.375324   
O96      O      0.590760000000     0.053990000000     0.625160000000    -0.404118   
C265     C      0.598170000000     0.078210000000     0.604670000000     0.39415    
C266     C      0.567190000000     0.089130000000     0.596500000000    -0.168147   
C267     C      0.570170000000     0.110850000000     0.570155000000     0.11068    
H166     H      0.591430000000     0.118870000000     0.557085000000     0.00571689 
C268     C      0.540620000000     0.119670000000     0.564505000000    -0.210525   
H167     H      0.542230000000     0.133770000000     0.547235000000     0.101242   
C269     C      0.509050000000     0.108490000000     0.583260000000     0.172125   
C270     C      0.506750000000     0.087400000000     0.608020000000    -0.211534   
H168     H      0.485430000000     0.079670000000     0.620935000000     0.110452   
C271     C      0.534960000000     0.076830000000     0.614930000000     0.113592   
H169     H      0.532030000000     0.061570000000     0.631835000000    -0.00348053 
C272     C      0.477700000000     0.120070000000     0.576580000000    -0.191021   
H170     H      0.463530000000     0.106170000000     0.558635000000     0.0888701  
H171     H      0.491130000000     0.148170000000     0.572185000000     0.0898905  
C273     C      0.460650000000     0.140130000000     0.623150000000    -0.182054   
H172     H      0.447830000000     0.126070000000     0.641385000000     0.0791103  
H173     H      0.488930000000     0.151870000000     0.626185000000     0.0875409  
C274     C      0.451810000000     0.172770000000     0.619290000000     0.149809   
C275     C      0.460190000000     0.200420000000     0.640655000000    -0.196004   
H174     H      0.471030000000     0.198570000000     0.658735000000     0.091553   
C276     C      0.452920000000     0.231490000000     0.636225000000     0.090514   
H175     H      0.459830000000     0.250370000000     0.651235000000     0.0132425  
C277     C      0.436580000000     0.235100000000     0.611390000000    -0.127996   
C278     C      0.426700000000     0.207850000000     0.588585000000     0.0761963  
H176     H      0.415130000000     0.209870000000     0.570885000000     0.0159843  
C279     C      0.434760000000     0.177290000000     0.593170000000    -0.175439   
H177     H      0.428430000000     0.158770000000     0.577935000000     0.0976531  
C280     C      0.412570000000     0.075920000000     0.600520000000     0.0571644  
C281     C      0.384240000000     0.069950000000     0.622000000000    -0.0472388  
H178     H      0.389630000000     0.089970000000     0.635785000000     0.0517544  
C282     C      0.348600000000     0.035450000000     0.623385000000    -0.0906597  
C283     C      0.340050000000     0.005740000000     0.602015000000     0.0178245  
H179     H      0.315630000000     0.982470000000     0.602085000000     0.0233299  
C284     C      0.368130000000     0.011560000000     0.581110000000    -0.0776838  
C285     C      0.404000000000     0.045640000000     0.580485000000    -0.0574324  
H180     H      0.422830000000     0.048470000000     0.566435000000     0.0655149  
C286     C      0.427960000000     0.269070000000     0.607590000000     0.306306   
C287     C      0.359590000000     0.979980000000     0.557940000000     0.321237   
C288     C      0.319520000000     0.029750000000     0.648060000000     0.376006   
N12      N      0.449450000000     0.112060000000     0.599830000000    -0.0779075  
Mn25     Mn     0.074320000000     0.738240000000     0.796180000000     0.730733   
Mn26     Mn     0.075630000000     0.655630000000     0.766890000000     0.930909   
O97      O      0.525290000000     0.919900000000     0.748810000000    -0.324642   
O98      O      0.524090000000     0.897570000000     0.794850000000    -0.323883   
O99      O      0.263570000000     0.946990000000     0.707385000000    -0.32369    
O100     O      0.291630000000     0.008450000000     0.722800000000    -0.413343   
O101     O      0.379360000000     0.047180000000     0.814715000000    -0.384611   
O102     O      0.391740000000     0.002120000000     0.833945000000    -0.401983   
O103     O      0.132440000000     0.704280000000     0.755190000000    -0.375376   
O104     O      0.129890000000     0.742570000000     0.791825000000    -0.404161   
C289     C      0.146700000000     0.735160000000     0.771335000000     0.394187   
C290     C      0.188600000000     0.766140000000     0.763165000000    -0.168173   
C291     C      0.207340000000     0.763160000000     0.736820000000     0.110692   
H181     H      0.194100000000     0.741900000000     0.723750000000     0.00570768 
C292     C      0.245710000000     0.792710000000     0.731170000000    -0.210538   
H182     H      0.258200000000     0.791100000000     0.713900000000     0.101242   
C293     C      0.266100000000     0.824280000000     0.749925000000     0.172128   
C294     C      0.247310000000     0.826580000000     0.774685000000    -0.211549   
H183     H      0.260900000000     0.847900000000     0.787600000000     0.110448   
C295     C      0.208530000000     0.798370000000     0.781595000000     0.113605   
H184     H      0.196200000000     0.801300000000     0.798500000000    -0.0034993  
C296     C      0.309030000000     0.855630000000     0.743245000000    -0.191019   
H185     H      0.309300000000     0.869800000000     0.725300000000     0.0888619  
H186     H      0.323700000000     0.842200000000     0.738850000000     0.0898886  
C297     C      0.346140000000     0.872680000000     0.789815000000    -0.18205    
H187     H      0.344900000000     0.885500000000     0.808050000000     0.0791036  
H188     H      0.329600000000     0.844400000000     0.792850000000     0.0875388  
C298     C      0.387620000000     0.881520000000     0.785955000000     0.149808   
C299     C      0.406890000000     0.873140000000     0.807320000000    -0.196011   
H189     H      0.394200000000     0.862300000000     0.825400000000     0.0915514  
C300     C      0.445230000000     0.880410000000     0.802890000000     0.0905204  
H190     H      0.457200000000     0.873500000000     0.817900000000     0.0132354  
C301     C      0.465180000000     0.896750000000     0.778055000000    -0.128012   
C302     C      0.447810000000     0.906630000000     0.755250000000     0.0762002  
H191     H      0.461400000000     0.918200000000     0.737550000000     0.0159731  
C303     C      0.409190000000     0.898570000000     0.759835000000    -0.175446   
H192     H      0.397000000000     0.904900000000     0.744600000000     0.0976483  
C304     C      0.330010000000     0.920760000000     0.767185000000     0.0572043  
C305     C      0.352370000000     0.949090000000     0.788665000000    -0.0473076  
H193     H      0.367000000000     0.943700000000     0.802450000000     0.0517636  
C306     C      0.353510000000     0.984730000000     0.790050000000    -0.0905908  
C307     C      0.332350000000     0.993280000000     0.768680000000     0.0175122  
H194     H      0.333500000000     0.017700000000     0.768750000000     0.0235081  
C308     C      0.310090000000     0.965200000000     0.747775000000    -0.0776101  
C309     C      0.308300000000     0.929330000000     0.747150000000    -0.0575053  
H195     H      0.292300000000     0.910500000000     0.733100000000     0.0655233  
C310     C      0.507770000000     0.905370000000     0.774255000000     0.306313   
C311     C      0.287050000000     0.973740000000     0.724605000000     0.321165   
C312     C      0.376890000000     0.013810000000     0.814725000000     0.375923   
N13      N      0.329270000000     0.883880000000     0.766495000000    -0.0779164  
Mn27     Mn     0.740990000000     0.071570000000     0.962845000000     0.730777   
Mn28     Mn     0.742290000000     0.988970000000     0.933560000000     0.930765   
O105     O      0.191960000000     0.253230000000     0.915475000000    -0.324697   
O106     O      0.190760000000     0.230900000000     0.961515000000    -0.323942   
O107     O      0.930240000000     0.280320000000     0.874050000000    -0.323727   
O108     O      0.958300000000     0.341780000000     0.889465000000    -0.413448   
O109     O      0.046030000000     0.380510000000     0.981380000000    -0.384638   
O110     O      0.058410000000     0.335450000000     0.500610000000    -0.402001   
O111     O      0.799110000000     0.037610000000     0.921855000000    -0.375303   
O112     O      0.796560000000     0.075900000000     0.958490000000    -0.404163   
C313     C      0.813370000000     0.068490000000     0.938000000000     0.394159   
C314     C      0.855270000000     0.099470000000     0.929830000000    -0.168161   
C315     C      0.874010000000     0.096490000000     0.903485000000     0.110697   
H196     H      0.860770000000     0.075230000000     0.890415000000     0.00572154 
C316     C      0.912380000000     0.126040000000     0.897835000000    -0.210545   
H197     H      0.924870000000     0.124430000000     0.880565000000     0.101259   
C317     C      0.932770000000     0.157610000000     0.916590000000     0.172152   
C318     C      0.913980000000     0.159910000000     0.941350000000    -0.211562   
H198     H      0.927570000000     0.181230000000     0.954265000000     0.110459   
C319     C      0.875200000000     0.131700000000     0.948260000000     0.113611   
H199     H      0.862870000000     0.134630000000     0.965165000000    -0.00349893 
C320     C      0.975700000000     0.188960000000     0.909910000000    -0.191062   
H200     H      0.975970000000     0.203130000000     0.891965000000     0.0888876  
H201     H      0.990370000000     0.175530000000     0.905515000000     0.0899239  
C321     C      0.012810000000     0.206010000000     0.956480000000    -0.1823     
H202     H      0.011570000000     0.218830000000     0.974715000000     0.0791601  
H203     H      0.996270000000     0.177730000000     0.959515000000     0.0876576  
C322     C      0.054290000000     0.214850000000     0.952620000000     0.149905   
C323     C      0.073560000000     0.206470000000     0.973985000000    -0.196091   
H204     H      0.060870000000     0.195630000000     0.992065000000     0.0915689  
C324     C      0.111900000000     0.213740000000     0.969555000000     0.0905731  
H205     H      0.123870000000     0.206830000000     0.984565000000     0.0132157  
C325     C      0.131850000000     0.230080000000     0.944720000000    -0.128041   
C326     C      0.114480000000     0.239960000000     0.921915000000     0.0762472  
H206     H      0.128070000000     0.251530000000     0.904215000000     0.0159624  
C327     C      0.075860000000     0.231900000000     0.926500000000    -0.175516   
H207     H      0.063670000000     0.238230000000     0.911265000000     0.0976637  
C328     C      0.996680000000     0.254090000000     0.933850000000     0.057209   
C329     C      0.019040000000     0.282420000000     0.955330000000    -0.0473049  
H208     H      0.033670000000     0.277030000000     0.969115000000     0.0517663  
C330     C      0.020180000000     0.318060000000     0.956715000000    -0.090722   
C331     C      0.999020000000     0.326610000000     0.935345000000     0.0179442  
H209     H      0.000170000000     0.351030000000     0.935415000000     0.0232714  
C332     C      0.976760000000     0.298530000000     0.914440000000    -0.0777936  
C333     C      0.974970000000     0.262660000000     0.913815000000    -0.0573921  
H210     H      0.958970000000     0.243830000000     0.899765000000     0.0654896  
C334     C      0.174440000000     0.238700000000     0.940920000000     0.306314   
C335     C      0.953720000000     0.307070000000     0.891270000000     0.321329   
C336     C      0.043560000000     0.347140000000     0.981390000000     0.375897   
N14      N      0.995940000000     0.217210000000     0.933160000000    -0.0778474  
Mn29     Mn     0.407650000000     0.404900000000     0.629515000000     0.730787   
Mn30     Mn     0.408960000000     0.322300000000     0.600225000000     0.930987   
O113     O      0.858620000000     0.586570000000     0.582145000000    -0.324637   
O114     O      0.857420000000     0.564240000000     0.628185000000    -0.323882   
O115     O      0.596900000000     0.613660000000     0.540720000000    -0.323774   
O116     O      0.624960000000     0.675120000000     0.556135000000    -0.413419   
O117     O      0.712690000000     0.713850000000     0.648050000000    -0.384601   
O118     O      0.725070000000     0.668790000000     0.667280000000    -0.401989   
O119     O      0.465770000000     0.370950000000     0.588525000000    -0.375389   
O120     O      0.463220000000     0.409240000000     0.625160000000    -0.404193   
C337     C      0.480030000000     0.401830000000     0.604670000000     0.394206   
C338     C      0.521930000000     0.432810000000     0.596500000000    -0.16818    
C339     C      0.540670000000     0.429830000000     0.570155000000     0.110698   
H211     H      0.527430000000     0.408570000000     0.557085000000     0.00570618 
C340     C      0.579040000000     0.459380000000     0.564505000000    -0.210543   
H212     H      0.591530000000     0.457770000000     0.547235000000     0.101244   
C341     C      0.599430000000     0.490950000000     0.583260000000     0.172134   
C342     C      0.580640000000     0.493250000000     0.608020000000    -0.211554   
H213     H      0.594230000000     0.514570000000     0.620935000000     0.110453   
C343     C      0.541860000000     0.465040000000     0.614930000000     0.113613   
H214     H      0.529530000000     0.467970000000     0.631835000000    -0.00349724 
C344     C      0.642360000000     0.522300000000     0.576580000000    -0.191024   
H215     H      0.642630000000     0.536470000000     0.558635000000     0.0888659  
H216     H      0.657030000000     0.508870000000     0.572185000000     0.0898905  
C345     C      0.679470000000     0.539350000000     0.623150000000    -0.182053   
H217     H      0.678230000000     0.552170000000     0.641385000000     0.0791078  
H218     H      0.662930000000     0.511070000000     0.626185000000     0.0875401  
C346     C      0.720950000000     0.548190000000     0.619290000000     0.149809   
C347     C      0.740220000000     0.539810000000     0.640655000000    -0.196009   
H219     H      0.727530000000     0.528970000000     0.658735000000     0.0915528  
C348     C      0.778560000000     0.547080000000     0.636225000000     0.0905193  
H220     H      0.790530000000     0.540170000000     0.651235000000     0.0132389  
C349     C      0.798510000000     0.563420000000     0.611390000000    -0.128007   
C350     C      0.781140000000     0.573300000000     0.588585000000     0.0762002  
H221     H      0.794730000000     0.584870000000     0.570885000000     0.0159808  
C351     C      0.742520000000     0.565240000000     0.593170000000    -0.175443   
H222     H      0.730330000000     0.571570000000     0.577935000000     0.0976522  
C352     C      0.663340000000     0.587430000000     0.600520000000     0.0571859  
C353     C      0.685700000000     0.615760000000     0.622000000000    -0.0472912  
H223     H      0.700330000000     0.610370000000     0.635785000000     0.0517693  
C354     C      0.686840000000     0.651400000000     0.623385000000    -0.0905797  
C355     C      0.665680000000     0.659950000000     0.602015000000     0.0176625  
H224     H      0.666830000000     0.684370000000     0.602085000000     0.0234223  
C356     C      0.643420000000     0.631870000000     0.581110000000    -0.0776808  
C357     C      0.641630000000     0.596000000000     0.580485000000    -0.0574558  
H225     H      0.625630000000     0.577170000000     0.566435000000     0.0655092  
C358     C      0.841100000000     0.572040000000     0.607590000000     0.306312   
C359     C      0.620380000000     0.640410000000     0.557940000000     0.321271   
C360     C      0.710220000000     0.680480000000     0.648060000000     0.375882   
N15      N      0.662600000000     0.550550000000     0.599830000000    -0.0779115  
Mn31     Mn     0.663920000000     0.925680000000     0.796180000000     0.730679   
Mn32     Mn     0.580010000000     0.924370000000     0.766890000000     0.930869   
O121     O      0.394610000000     0.474710000000     0.748810000000    -0.324659   
O122     O      0.373480000000     0.475910000000     0.794850000000    -0.323872   
O123     O      0.683420000000     0.736430000000     0.707385000000    -0.323751   
O124     O      0.716820000000     0.708370000000     0.722800000000    -0.413371   
O125     O      0.667820000000     0.620640000000     0.814715000000    -0.38461    
O126     O      0.610380000000     0.608260000000     0.833945000000    -0.401989   
O127     O      0.571840000000     0.867560000000     0.755190000000    -0.3754     
O128     O      0.612680000000     0.870110000000     0.791825000000    -0.404166   
C361     C      0.588460000000     0.853300000000     0.771335000000     0.394186   
C362     C      0.577540000000     0.811400000000     0.763165000000    -0.168171   
C363     C      0.555820000000     0.792660000000     0.736820000000     0.110693   
H226     H      0.547800000000     0.805900000000     0.723750000000     0.00570879 
C364     C      0.547000000000     0.754290000000     0.731170000000    -0.210539   
H227     H      0.532900000000     0.741800000000     0.713900000000     0.101244   
C365     C      0.558180000000     0.733900000000     0.749925000000     0.17213    
C366     C      0.579270000000     0.752690000000     0.774685000000    -0.21155    
H228     H      0.587000000000     0.739100000000     0.787600000000     0.110451   
C367     C      0.589840000000     0.791470000000     0.781595000000     0.113605   
H229     H      0.605100000000     0.803800000000     0.798500000000    -0.00349722 
C368     C      0.546600000000     0.690970000000     0.743245000000    -0.191023   
H230     H      0.560500000000     0.690700000000     0.725300000000     0.0888663  
H231     H      0.518500000000     0.676300000000     0.738850000000     0.089891   
C369     C      0.526540000000     0.653860000000     0.789815000000    -0.182053   
H232     H      0.540600000000     0.655100000000     0.808050000000     0.0791093  
H233     H      0.514800000000     0.670400000000     0.792850000000     0.0875404  
C370     C      0.493900000000     0.612380000000     0.785955000000     0.149811   
C371     C      0.466250000000     0.593110000000     0.807320000000    -0.196006   
H234     H      0.468100000000     0.605800000000     0.825400000000     0.0915543  
C372     C      0.435180000000     0.554770000000     0.802890000000     0.0905186  
H235     H      0.416300000000     0.542800000000     0.817900000000     0.0132409  
C373     C      0.431570000000     0.534820000000     0.778055000000    -0.128002   
C374     C      0.458820000000     0.552190000000     0.755250000000     0.0761995  
H236     H      0.456800000000     0.538600000000     0.737550000000     0.0159819  
C375     C      0.489380000000     0.590810000000     0.759835000000    -0.175441   
H237     H      0.507900000000     0.603000000000     0.744600000000     0.0976528  
C376     C      0.590750000000     0.669990000000     0.767185000000     0.0571928  
C377     C      0.596720000000     0.647630000000     0.788665000000    -0.0473004  
H238     H      0.576700000000     0.633000000000     0.802450000000     0.0517768  
C378     C      0.631220000000     0.646490000000     0.790050000000    -0.090571   
C379     C      0.660930000000     0.667650000000     0.768680000000     0.0176514  
H239     H      0.684200000000     0.666500000000     0.768750000000     0.0234293  
C380     C      0.655110000000     0.689910000000     0.747775000000    -0.0776669  
C381     C      0.621030000000     0.691700000000     0.747150000000    -0.0574649  
H240     H      0.618200000000     0.707700000000     0.733100000000     0.0655125  
C382     C      0.397600000000     0.492230000000     0.774255000000     0.306309   
C383     C      0.686690000000     0.712950000000     0.724605000000     0.321253   
C384     C      0.636920000000     0.623110000000     0.814725000000     0.375873   
N16      N      0.554610000000     0.670730000000     0.766495000000    -0.0779125  
Mn33     Mn     0.330590000000     0.259010000000     0.962845000000     0.730703   
Mn34     Mn     0.246670000000     0.257710000000     0.933560000000     0.930932   
O129     O      0.061280000000     0.808040000000     0.915475000000    -0.324658   
O130     O      0.040150000000     0.809240000000     0.961515000000    -0.323965   
O131     O      0.350090000000     0.069760000000     0.874050000000    -0.323773   
O132     O      0.383490000000     0.041700000000     0.889465000000    -0.413487   
O133     O      0.334490000000     0.953970000000     0.981380000000    -0.384629   
O134     O      0.277050000000     0.941590000000     0.500610000000    -0.401989   
O135     O      0.238510000000     0.200890000000     0.921855000000    -0.375297   
O136     O      0.279350000000     0.203440000000     0.958490000000    -0.40415    
C385     C      0.255130000000     0.186630000000     0.938000000000     0.394161   
C386     C      0.244210000000     0.144730000000     0.929830000000    -0.168174   
C387     C      0.222490000000     0.125990000000     0.903485000000     0.110699   
H241     H      0.214470000000     0.139230000000     0.890415000000     0.00570653 
C388     C      0.213670000000     0.087620000000     0.897835000000    -0.210552   
H242     H      0.199570000000     0.075130000000     0.880565000000     0.101252   
C389     C      0.224850000000     0.067230000000     0.916590000000     0.172151   
C390     C      0.245940000000     0.086020000000     0.941350000000    -0.211566   
H243     H      0.253670000000     0.072430000000     0.954265000000     0.110459   
C391     C      0.256510000000     0.124800000000     0.948260000000     0.113615   
H244     H      0.271770000000     0.137130000000     0.965165000000    -0.00350283 
C392     C      0.213270000000     0.024300000000     0.909910000000    -0.191058   
H245     H      0.227170000000     0.024030000000     0.891965000000     0.0888851  
H246     H      0.185170000000     0.009630000000     0.905515000000     0.0899168  
C393     C      0.193210000000     0.987190000000     0.956480000000    -0.182294   
H247     H      0.207270000000     0.988430000000     0.974715000000     0.0791552  
H248     H      0.181470000000     0.003730000000     0.959515000000     0.0876492  
C394     C      0.160570000000     0.945710000000     0.952620000000     0.149903   
C395     C      0.132920000000     0.926440000000     0.973985000000    -0.1961     
H249     H      0.134770000000     0.939130000000     0.992065000000     0.0915624  
C396     C      0.101850000000     0.888100000000     0.969555000000     0.0905792  
H250     H      0.082970000000     0.876130000000     0.984565000000     0.0132021  
C397     C      0.098240000000     0.868150000000     0.944720000000    -0.128057   
C398     C      0.125490000000     0.885520000000     0.921915000000     0.0762521  
H251     H      0.123470000000     0.871930000000     0.904215000000     0.0159559  
C399     C      0.156050000000     0.924140000000     0.926500000000    -0.175522   
H252     H      0.174570000000     0.936330000000     0.911265000000     0.0976634  
C400     C      0.257420000000     0.003320000000     0.933850000000     0.0572033  
C401     C      0.263390000000     0.980960000000     0.955330000000    -0.0472978  
H253     H      0.243370000000     0.966330000000     0.969115000000     0.0517602  
C402     C      0.297890000000     0.979820000000     0.956715000000    -0.0907287  
C403     C      0.327600000000     0.000980000000     0.935345000000     0.0179528  
H254     H      0.350870000000     0.999830000000     0.935415000000     0.0232639  
C404     C      0.321780000000     0.023240000000     0.914440000000    -0.0778061  
C405     C      0.287700000000     0.025030000000     0.913815000000    -0.0573841  
H255     H      0.284870000000     0.041030000000     0.899765000000     0.0654876  
C406     C      0.064270000000     0.825560000000     0.940920000000     0.306324   
C407     C      0.353360000000     0.046280000000     0.891270000000     0.321348   
C408     C      0.303590000000     0.956440000000     0.981390000000     0.375901   
N17      N      0.221280000000     0.004060000000     0.933160000000    -0.0778485  
Mn35     Mn     0.997250000000     0.592350000000     0.629515000000     0.730867   
Mn36     Mn     0.913340000000     0.591040000000     0.600225000000     0.93094    
O137     O      0.727940000000     0.141380000000     0.582145000000    -0.324654   
O138     O      0.706810000000     0.142580000000     0.628185000000    -0.323883   
O139     O      0.016750000000     0.403100000000     0.540720000000    -0.323698   
O140     O      0.050150000000     0.375040000000     0.556135000000    -0.413381   
O141     O      0.001150000000     0.287310000000     0.648050000000    -0.384678   
O142     O      0.943710000000     0.274930000000     0.667280000000    -0.402039   
O143     O      0.905170000000     0.534230000000     0.588525000000    -0.375404   
O144     O      0.946010000000     0.536780000000     0.625160000000    -0.404166   
C409     C      0.921790000000     0.519970000000     0.604670000000     0.394196   
C410     C      0.910870000000     0.478070000000     0.596500000000    -0.168171   
C411     C      0.889150000000     0.459330000000     0.570155000000     0.110698   
H256     H      0.881130000000     0.472570000000     0.557085000000     0.00571017 
C412     C      0.880330000000     0.420960000000     0.564505000000    -0.21054    
H257     H      0.866230000000     0.408470000000     0.547235000000     0.101246   
C413     C      0.891510000000     0.400570000000     0.583260000000     0.172136   
C414     C      0.912600000000     0.419360000000     0.608020000000    -0.211549   
H258     H      0.920330000000     0.405770000000     0.620935000000     0.110458   
C415     C      0.923170000000     0.458140000000     0.614930000000     0.113611   
H259     H      0.938430000000     0.470470000000     0.631835000000    -0.00349011 
C416     C      0.879930000000     0.357640000000     0.576580000000    -0.191027   
H260     H      0.893830000000     0.357370000000     0.558635000000     0.0888712  
H261     H      0.851830000000     0.342970000000     0.572185000000     0.0898922  
C417     C      0.859870000000     0.320530000000     0.623150000000    -0.182061   
H262     H      0.873930000000     0.321770000000     0.641385000000     0.0791161  
H263     H      0.848130000000     0.337070000000     0.626185000000     0.0875438  
C418     C      0.827230000000     0.279050000000     0.619290000000     0.149816   
C419     C      0.799580000000     0.259780000000     0.640655000000    -0.196012   
H264     H      0.801430000000     0.272470000000     0.658735000000     0.0915577  
C420     C      0.768510000000     0.221440000000     0.636225000000     0.0905221  
H265     H      0.749630000000     0.209470000000     0.651235000000     0.0132389  
C421     C      0.764900000000     0.201490000000     0.611390000000    -0.128006   
C422     C      0.792150000000     0.218860000000     0.588585000000     0.0762029  
H266     H      0.790130000000     0.205270000000     0.570885000000     0.0159819  
C423     C      0.822710000000     0.257480000000     0.593170000000    -0.175446   
H267     H      0.841230000000     0.269670000000     0.577935000000     0.0976553  
C424     C      0.924080000000     0.336660000000     0.600520000000     0.0571728  
C425     C      0.930050000000     0.314300000000     0.622000000000    -0.0472494  
H268     H      0.910030000000     0.299670000000     0.635785000000     0.0517626  
C426     C      0.964550000000     0.313160000000     0.623385000000    -0.0906454  
C427     C      0.994260000000     0.334320000000     0.602015000000     0.0178088  
H269     H      0.017530000000     0.333170000000     0.602085000000     0.0233377  
C428     C      0.988440000000     0.356580000000     0.581110000000    -0.0776632  
C429     C      0.954360000000     0.358370000000     0.580485000000    -0.0574462  
H270     H      0.951530000000     0.374370000000     0.566435000000     0.0655191  
C430     C      0.730930000000     0.158900000000     0.607590000000     0.306309   
C431     C      0.020020000000     0.379620000000     0.557940000000     0.321207   
C432     C      0.970250000000     0.289780000000     0.648060000000     0.375991   
N18      N      0.887940000000     0.337400000000     0.599830000000    -0.077907   


