data_XALCUJ_clean

_audit_creation_method RASPA-1.0
_audit_creation_date 2025-1-24
_audit_author_name ''

_cell_length_a    34.8786
_cell_length_b    30.1741
_cell_length_c    30.1741
_cell_angle_alpha 85.2098
_cell_angle_beta  73.2032
_cell_angle_gamma 73.2033
_cell_volume      29104.2

_symmetry_cell_setting          triclinic
_symmetry_space_group_name_Hall 'P 1'
_symmetry_space_group_name_H-M  'P 1'
_symmetry_Int_Tables_number     1

_symmetry_equiv_pos_as_xyz 'x,y,z'

loop_
_atom_site_label
_atom_site_type_symbol
_atom_site_fract_x
_atom_site_fract_y
_atom_site_fract_z
_atom_site_charge
Mn       Mn     0.294400000000     0.916470000000     0.356660000000     0          
Mn       Mn     0.380365000000     0.882260000000     0.464060000000     0          
Mn       Mn     0.148230000000     0.998110000000     0.422010000000     0          
Mn       Mn     0.180970000000     0.583530000000     0.143340000000     0          
Mn       Mn     0.303525000000     0.617740000000     0.035940000000     0          
Mn       Mn     0.108290000000     0.501890000000     0.077990000000     0          
Mn       Mn     0.472735000000     0.643340000000     0.416460000000     0          
Mn       Mn     0.112395000000     0.535940000000     0.382260000000     0          
Mn       Mn     0.359235000000     0.577990000000     0.498110000000     0          
Mn       Mn     0.252635000000     0.856660000000     0.083540000000     0          
Mn       Mn     0.321495000000     0.964060000000     0.117740000000     0          
Mn       Mn     0.147285000000     0.922010000000     0.001890000000     0          
Mn       Mn     0.205600000000     0.083530000000     0.643340000000     0          
Mn       Mn     0.119635000000     0.117740000000     0.535940000000     0          
Mn       Mn     0.351770000000     0.001890000000     0.577990000000     0          
Mn       Mn     0.319030000000     0.416470000000     0.856660000000     0          
Mn       Mn     0.196475000000     0.382260000000     0.964060000000     0          
Mn       Mn     0.391710000000     0.498110000000     0.922010000000     0          
Mn       Mn     0.027265000000     0.356660000000     0.583540000000     0          
Mn       Mn     0.387605000000     0.464060000000     0.617740000000     0          
Mn       Mn     0.140765000000     0.422010000000     0.501890000000     0          
Mn       Mn     0.247365000000     0.143340000000     0.916460000000     0          
Mn       Mn     0.178505000000     0.035940000000     0.882260000000     0          
Mn       Mn     0.352715000000     0.077990000000     0.998110000000     0          
H        H      0.294600000000     0.784900000000     0.309900000000     0          
H        H      0.334000000000     0.711100000000     0.317500000000     0          
H        H      0.379750000000     0.696600000000     0.363200000000     0          
H        H      0.384000000000     0.756900000000     0.401100000000     0          
H        H      0.306750000000     0.027900000000     0.433500000000     0          
H        H      0.341350000000     0.993100000000     0.452700000000     0          
H        H      0.359000000000     0.024600000000     0.359000000000     0          
H        H      0.392700000000     0.996100000000     0.383300000000     0          
H        H      0.355100000000     0.068200000000     0.436400000000     0          
H        H      0.355550000000     0.089500000000     0.387300000000     0          
H        H      0.414850000000     0.044200000000     0.418200000000     0          
H        H      0.417350000000     0.059900000000     0.367300000000     0          
H        H      0.384000000000     0.141900000000     0.407300000000     0          
H        H      0.409500000000     0.116700000000     0.441700000000     0          
H        H      0.432550000000     0.121800000000     0.389400000000     0          
H        H      0.389200000000     0.914600000000     0.334200000000     0          
H        H      0.447500000000     0.915200000000     0.275600000000     0          
H        H      0.386600000000     0.903700000000     0.185100000000     0          
H        H      0.328450000000     0.906900000000     0.246100000000     0          
H        H      0.454000000000     0.937600000000     0.163400000000     0          
H        H      0.466400000000     0.883600000000     0.161600000000     0          
H        H      0.486700000000     0.901900000000     0.353900000000     0          
H        H      0.033300000000     0.942100000000     0.352700000000     0          
H        H      0.027300000000     0.985900000000     0.416300000000     0          
H        H      0.470850000000     0.989100000000     0.480500000000     0          
H        H      0.261300000000     0.925800000000     0.575000000000     0          
H        H      0.282750000000     0.943100000000     0.606500000000     0          
H        H      0.259900000000     0.877900000000     0.638300000000     0          
H        H      0.290500000000     0.848700000000     0.595100000000     0          
H        H      0.347800000000     0.855300000000     0.616300000000     0          
H        H      0.318400000000     0.887800000000     0.657600000000     0          
H        H      0.322800000000     0.792800000000     0.653000000000     0          
H        H      0.292900000000     0.825300000000     0.694100000000     0          
H        H      0.380800000000     0.801900000000     0.672900000000     0          
H        H      0.350400000000     0.833100000000     0.714900000000     0          
H        H      0.352750000000     0.780500000000     0.714300000000     0          
H        H      0.104500000000     0.072000000000     0.308600000000     0          
H        H      0.134750000000     0.069200000000     0.229800000000     0          
H        H      0.202650000000     0.023800000000     0.199200000000     0          
H        H      0.239250000000     0.982500000000     0.248700000000     0          
H        H      0.228000000000     0.916600000000     0.508400000000     0          
H        H      0.261050000000     0.889800000000     0.465000000000     0          
H        H      0.223000000000     0.842000000000     0.515600000000     0          
H        H      0.182550000000     0.872300000000     0.503500000000     0          
H        H      0.252400000000     0.818500000000     0.437900000000     0          
H        H      0.211800000000     0.848500000000     0.426100000000     0          
H        H      0.214450000000     0.769700000000     0.484100000000     0          
H        H      0.174300000000     0.799300000000     0.471100000000     0          
H        H      0.213200000000     0.776800000000     0.391600000000     0          
H        H      0.196900000000     0.738700000000     0.423700000000     0          
H        H      0.243650000000     0.738600000000     0.413200000000     0          
H        H      0.068650000000     0.980600000000     0.071200000000     0          
H        H      0.016900000000     0.978900000000     0.137500000000     0          
H        H      0.056200000000     0.842000000000     0.133600000000     0          
H        H      0.107000000000     0.846400000000     0.067200000000     0          
H        H      0.007800000000     0.879500000000     0.206500000000     0          
H        H      0.494900000000     0.933800000000     0.209400000000     0          
H        H      0.092000000000     0.715100000000     0.190100000000     0          
H        H      0.098300000000     0.788900000000     0.182500000000     0          
H        H      0.159650000000     0.803400000000     0.136800000000     0          
H        H      0.213000000000     0.743100000000     0.098900000000     0          
H        H      0.287450000000     0.472100000000     0.066500000000     0          
H        H      0.314250000000     0.506900000000     0.047300000000     0          
H        H      0.300800000000     0.475400000000     0.141000000000     0          
H        H      0.332400000000     0.503900000000     0.116700000000     0          
H        H      0.357400000000     0.431800000000     0.063600000000     0          
H        H      0.343950000000     0.410500000000     0.112700000000     0          
H        H      0.396050000000     0.455800000000     0.081800000000     0          
H        H      0.380950000000     0.440100000000     0.132700000000     0          
H        H      0.408600000000     0.358100000000     0.092700000000     0          
H        H      0.438700000000     0.383300000000     0.058300000000     0          
H        H      0.438150000000     0.378200000000     0.110600000000     0          
H        H      0.263600000000     0.585400000000     0.165800000000     0          
H        H      0.292900000000     0.584800000000     0.224400000000     0          
H        H      0.181000000000     0.596300000000     0.314900000000     0          
H        H      0.154950000000     0.593100000000     0.253900000000     0          
H        H      0.254500000000     0.562400000000     0.336600000000     0          
H        H      0.239000000000     0.616400000000     0.338400000000     0          
H        H      0.364600000000     0.598100000000     0.146100000000     0          
H        H      0.430700000000     0.557900000000     0.147300000000     0          
H        H      0.478400000000     0.514100000000     0.083700000000     0          
H        H      0.455650000000     0.510900000000     0.019500000000     0          
H        H      0.261700000000     0.574200000000     0.925000000000     0          
H        H      0.307550000000     0.556900000000     0.893500000000     0          
H        H      0.268000000000     0.622100000000     0.861700000000     0          
H        H      0.262400000000     0.651300000000     0.904900000000     0          
H        H      0.333600000000     0.644700000000     0.883700000000     0          
H        H      0.341100000000     0.612200000000     0.842400000000     0          
H        H      0.295700000000     0.707200000000     0.847000000000     0          
H        H      0.302600000000     0.674700000000     0.805900000000     0          
H        H      0.368200000000     0.698100000000     0.827100000000     0          
H        H      0.374400000000     0.666900000000     0.785100000000     0          
H        H      0.350150000000     0.719500000000     0.785700000000     0          
H        H      0.044800000000     0.428000000000     0.191400000000     0          
H        H      0.034250000000     0.430800000000     0.270200000000     0          
H        H      0.064150000000     0.476200000000     0.300800000000     0          
H        H      0.104850000000     0.517500000000     0.251300000000     0          
H        H      0.190500000000     0.583400000000     0.991600000000     0          
H        H      0.188450000000     0.610200000000     0.035000000000     0          
H        H      0.151800000000     0.658000000000     0.984400000000     0          
H        H      0.120450000000     0.627700000000     0.996500000000     0          
H        H      0.130600000000     0.681500000000     0.062100000000     0          
H        H      0.099100000000     0.651500000000     0.073900000000     0          
H        H      0.091350000000     0.730300000000     0.015900000000     0          
H        H      0.059500000000     0.700700000000     0.028900000000     0          
H        H      0.047400000000     0.723200000000     0.108400000000     0          
H        H      0.028100000000     0.761300000000     0.076300000000     0          
H        H      0.069550000000     0.761400000000     0.086800000000     0          
H        H      0.344550000000     0.519400000000     0.428800000000     0          
H        H      0.325100000000     0.521100000000     0.362500000000     0          
H        H      0.294000000000     0.658000000000     0.366400000000     0          
H        H      0.313800000000     0.653600000000     0.432800000000     0          
H        H      0.300800000000     0.620500000000     0.293500000000     0          
H        H      0.316500000000     0.566200000000     0.290600000000     0          
H        H      0.449550000000     0.690100000000     0.284900000000     0          
H        H      0.492750000000     0.682500000000     0.211100000000     0          
H        H      0.061350000000     0.636800000000     0.196600000000     0          
H        H      0.084550000000     0.598900000000     0.256900000000     0          
H        H      0.023500000000     0.566500000000     0.527900000000     0          
H        H      0.067700000000     0.547300000000     0.493100000000     0          
H        H      0.038500000000     0.641000000000     0.524600000000     0          
H        H      0.084350000000     0.616700000000     0.496100000000     0          
H        H      0.073300000000     0.563600000000     0.568200000000     0          
H        H      0.049200000000     0.612700000000     0.589500000000     0          
H        H      0.123950000000     0.581800000000     0.544200000000     0          
H        H      0.101000000000     0.632700000000     0.559900000000     0          
H        H      0.087650000000     0.592700000000     0.641900000000     0          
H        H      0.130350000000     0.558300000000     0.616700000000     0          
H        H      0.127250000000     0.610600000000     0.621800000000     0          
H        H      0.056300000000     0.665800000000     0.414600000000     0          
H        H      0.085300000000     0.724400000000     0.415200000000     0          
H        H      0.479150000000     0.814900000000     0.403700000000     0          
H        H      0.451500000000     0.753900000000     0.406900000000     0          
H        H      0.035700000000     0.836600000000     0.437600000000     0          
H        H      0.047200000000     0.838400000000     0.383600000000     0          
H        H      0.163650000000     0.646100000000     0.401900000000     0          
H        H      0.209650000000     0.647300000000     0.442100000000     0          
H        H      0.235450000000     0.583700000000     0.485900000000     0          
H        H      0.211100000000     0.519500000000     0.489100000000     0          
H        H      0.048800000000     0.425000000000     0.425800000000     0          
H        H      0.086000000000     0.393500000000     0.443100000000     0          
H        H      0.079050000000     0.361700000000     0.377900000000     0          
H        H      0.088050000000     0.404900000000     0.348700000000     0          
H        H      0.155950000000     0.383700000000     0.355300000000     0          
H        H      0.147200000000     0.342400000000     0.387800000000     0          
H        H      0.149300000000     0.347000000000     0.292800000000     0          
H        H      0.139950000000     0.305900000000     0.325300000000     0          
H        H      0.217250000000     0.327100000000     0.301900000000     0          
H        H      0.207850000000     0.285100000000     0.333100000000     0          
H        H      0.209900000000     0.285700000000     0.280500000000     0          
H        H      0.258800000000     0.691400000000     0.572000000000     0          
H        H      0.249650000000     0.770200000000     0.569200000000     0          
H        H      0.302250000000     0.800800000000     0.523800000000     0          
H        H      0.363600000000     0.751300000000     0.482500000000     0          
H        H      0.482200000000     0.491600000000     0.416600000000     0          
H        H      0.493550000000     0.535000000000     0.389800000000     0          
H        H      0.480800000000     0.484400000000     0.342000000000     0          
H        H      0.434300000000     0.496500000000     0.372300000000     0          
H        H      0.471350000000     0.562100000000     0.318500000000     0          
H        H      0.424850000000     0.573900000000     0.348500000000     0          
H        H      0.456500000000     0.515900000000     0.269700000000     0          
H        H      0.409850000000     0.528900000000     0.299300000000     0          
H        H      0.409000000000     0.608400000000     0.276800000000     0          
H        H      0.408750000000     0.576300000000     0.238700000000     0          
H        H      0.450250000000     0.586800000000     0.238600000000     0          
H        H      0.104250000000     0.928800000000     0.480600000000     0          
H        H      0.085650000000     0.862500000000     0.478900000000     0          
H        H      0.123000000000     0.866400000000     0.342000000000     0          
H        H      0.140600000000     0.932800000000     0.346400000000     0          
H        H      0.111050000000     0.793500000000     0.379500000000     0          
H        H      0.099600000000     0.790600000000     0.433800000000     0          
H        H      0.187050000000     0.809900000000     0.215100000000     0          
H        H      0.189550000000     0.817500000000     0.288900000000     0          
H        H      0.228050000000     0.863200000000     0.303400000000     0          
H        H      0.262450000000     0.901100000000     0.243100000000     0          
H        H      0.320700000000     0.933500000000     0.972100000000     0          
H        H      0.337900000000     0.952700000000     0.006900000000     0          
H        H      0.371300000000     0.859000000000     0.975400000000     0          
H        H      0.390750000000     0.883300000000     0.003900000000     0          
H        H      0.389200000000     0.936400000000     0.931800000000     0          
H        H      0.400300000000     0.887300000000     0.910500000000     0          
H        H      0.436950000000     0.918200000000     0.955800000000     0          
H        H      0.447300000000     0.867300000000     0.940100000000     0          
H        H      0.454950000000     0.907300000000     0.858100000000     0          
H        H      0.467850000000     0.941700000000     0.883300000000     0          
H        H      0.493450000000     0.889400000000     0.878200000000     0          
H        H      0.346500000000     0.834200000000     0.085400000000     0          
H        H      0.405100000000     0.775600000000     0.084800000000     0          
H        H      0.338450000000     0.685100000000     0.096300000000     0          
H        H      0.281900000000     0.746100000000     0.093100000000     0          
H        H      0.422800000000     0.663400000000     0.062400000000     0          
H        H      0.408200000000     0.661600000000     0.116400000000     0          
H        H      0.437650000000     0.853900000000     0.098100000000     0          
H        H      0.004350000000     0.852700000000     0.057900000000     0          
H        H      0.020250000000     0.916300000000     0.014100000000     0          
H        H      0.465400000000     0.980500000000     0.010900000000     0          
H        H      0.224200000000     0.075000000000     0.074200000000     0          
H        H      0.254300000000     0.106500000000     0.056900000000     0          
H        H      0.198850000000     0.138300000000     0.122100000000     0          
H        H      0.214850000000     0.095100000000     0.151300000000     0          
H        H      0.275450000000     0.116300000000     0.144700000000     0          
H        H      0.262300000000     0.157600000000     0.112200000000     0          
H        H      0.219200000000     0.153000000000     0.207200000000     0          
H        H      0.205550000000     0.194100000000     0.174700000000     0          
H        H      0.281750000000     0.172900000000     0.198100000000     0          
H        H      0.266950000000     0.214900000000     0.166900000000     0          
H        H      0.243000000000     0.214300000000     0.219500000000     0          
H        H      0.140500000000     0.808600000000     0.928000000000     0          
H        H      0.169350000000     0.729800000000     0.930800000000     0          
H        H      0.214550000000     0.699200000000     0.976200000000     0          
H        H      0.230500000000     0.748700000000     0.017500000000     0          
H        H      0.186300000000     0.008400000000     0.083400000000     0          
H        H      0.205950000000     0.965000000000     0.110200000000     0          
H        H      0.144000000000     0.015600000000     0.158000000000     0          
H        H      0.118700000000     0.003500000000     0.127700000000     0          
H        H      0.161650000000     0.937900000000     0.181500000000     0          
H        H      0.136050000000     0.926100000000     0.151500000000     0          
H        H      0.099300000000     0.984100000000     0.230300000000     0          
H        H      0.073950000000     0.971100000000     0.200700000000     0          
H        H      0.101600000000     0.891600000000     0.223200000000     0          
H        H      0.066250000000     0.923700000000     0.261300000000     0          
H        H      0.112950000000     0.913200000000     0.261400000000     0          
H        H      0.058950000000     0.571200000000     0.019400000000     0          
H        H      0.006350000000     0.637500000000     0.021100000000     0          
H        H      0.477200000000     0.633600000000     0.158000000000     0          
H        H      0.030200000000     0.567200000000     0.153600000000     0          
H        H      0.447550000000     0.706500000000     0.120500000000     0          
H        H      0.461800000000     0.709400000000     0.066200000000     0          
H        H      0.205400000000     0.215100000000     0.690100000000     0          
H        H      0.166000000000     0.288900000000     0.682500000000     0          
H        H      0.120250000000     0.303400000000     0.636800000000     0          
H        H      0.116000000000     0.243100000000     0.598900000000     0          
H        H      0.193250000000     0.972100000000     0.566500000000     0          
H        H      0.158650000000     0.006900000000     0.547300000000     0          
H        H      0.141000000000     0.975400000000     0.641000000000     0          
H        H      0.107300000000     0.003900000000     0.616700000000     0          
H        H      0.144900000000     0.931800000000     0.563600000000     0          
H        H      0.144450000000     0.910500000000     0.612700000000     0          
H        H      0.085150000000     0.955800000000     0.581800000000     0          
H        H      0.082650000000     0.940100000000     0.632700000000     0          
H        H      0.116000000000     0.858100000000     0.592700000000     0          
H        H      0.090500000000     0.883300000000     0.558300000000     0          
H        H      0.067450000000     0.878200000000     0.610600000000     0          
H        H      0.110800000000     0.085400000000     0.665800000000     0          
H        H      0.052500000000     0.084800000000     0.724400000000     0          
H        H      0.113400000000     0.096300000000     0.814900000000     0          
H        H      0.171550000000     0.093100000000     0.753900000000     0          
H        H      0.046000000000     0.062400000000     0.836600000000     0          
H        H      0.033600000000     0.116400000000     0.838400000000     0          
H        H      0.013300000000     0.098100000000     0.646100000000     0          
H        H      0.466700000000     0.057900000000     0.647300000000     0          
H        H      0.472700000000     0.014100000000     0.583700000000     0          
H        H      0.029150000000     0.010900000000     0.519500000000     0          
H        H      0.238700000000     0.074200000000     0.425000000000     0          
H        H      0.217250000000     0.056900000000     0.393500000000     0          
H        H      0.240100000000     0.122100000000     0.361700000000     0          
H        H      0.209500000000     0.151300000000     0.404900000000     0          
H        H      0.152200000000     0.144700000000     0.383700000000     0          
H        H      0.181600000000     0.112200000000     0.342400000000     0          
H        H      0.177200000000     0.207200000000     0.347000000000     0          
H        H      0.207100000000     0.174700000000     0.305900000000     0          
H        H      0.119200000000     0.198100000000     0.327100000000     0          
H        H      0.149600000000     0.166900000000     0.285100000000     0          
H        H      0.147250000000     0.219500000000     0.285700000000     0          
H        H      0.395500000000     0.928000000000     0.691400000000     0          
H        H      0.365250000000     0.930800000000     0.770200000000     0          
H        H      0.297350000000     0.976200000000     0.800800000000     0          
H        H      0.260750000000     0.017500000000     0.751300000000     0          
H        H      0.272000000000     0.083400000000     0.491600000000     0          
H        H      0.238950000000     0.110200000000     0.535000000000     0          
H        H      0.277000000000     0.158000000000     0.484400000000     0          
H        H      0.317450000000     0.127700000000     0.496500000000     0          
H        H      0.247600000000     0.181500000000     0.562100000000     0          
H        H      0.288200000000     0.151500000000     0.573900000000     0          
H        H      0.285550000000     0.230300000000     0.515900000000     0          
H        H      0.325700000000     0.200700000000     0.528900000000     0          
H        H      0.286800000000     0.223200000000     0.608400000000     0          
H        H      0.303100000000     0.261300000000     0.576300000000     0          
H        H      0.256350000000     0.261400000000     0.586800000000     0          
H        H      0.431350000000     0.019400000000     0.928800000000     0          
H        H      0.483100000000     0.021100000000     0.862500000000     0          
H        H      0.443800000000     0.158000000000     0.866400000000     0          
H        H      0.393000000000     0.153600000000     0.932800000000     0          
H        H      0.492200000000     0.120500000000     0.793500000000     0          
H        H      0.005100000000     0.066200000000     0.790600000000     0          
H        H      0.408000000000     0.284900000000     0.809900000000     0          
H        H      0.401700000000     0.211100000000     0.817500000000     0          
H        H      0.340350000000     0.196600000000     0.863200000000     0          
H        H      0.287000000000     0.256900000000     0.901100000000     0          
H        H      0.212550000000     0.527900000000     0.933500000000     0          
H        H      0.185750000000     0.493100000000     0.952700000000     0          
H        H      0.199200000000     0.524600000000     0.859000000000     0          
H        H      0.167600000000     0.496100000000     0.883300000000     0          
H        H      0.142600000000     0.568200000000     0.936400000000     0          
H        H      0.156050000000     0.589500000000     0.887300000000     0          
H        H      0.103950000000     0.544200000000     0.918200000000     0          
H        H      0.119050000000     0.559900000000     0.867300000000     0          
H        H      0.091400000000     0.641900000000     0.907300000000     0          
H        H      0.061300000000     0.616700000000     0.941700000000     0          
H        H      0.061850000000     0.621800000000     0.889400000000     0          
H        H      0.236400000000     0.414600000000     0.834200000000     0          
H        H      0.207100000000     0.415200000000     0.775600000000     0          
H        H      0.319000000000     0.403700000000     0.685100000000     0          
H        H      0.345050000000     0.406900000000     0.746100000000     0          
H        H      0.245500000000     0.437600000000     0.663400000000     0          
H        H      0.261000000000     0.383600000000     0.661600000000     0          
H        H      0.135400000000     0.401900000000     0.853900000000     0          
H        H      0.069300000000     0.442100000000     0.852700000000     0          
H        H      0.021600000000     0.485900000000     0.916300000000     0          
H        H      0.044350000000     0.489100000000     0.980500000000     0          
H        H      0.238300000000     0.425800000000     0.075000000000     0          
H        H      0.192450000000     0.443100000000     0.106500000000     0          
H        H      0.232000000000     0.377900000000     0.138300000000     0          
H        H      0.237600000000     0.348700000000     0.095100000000     0          
H        H      0.166400000000     0.355300000000     0.116300000000     0          
H        H      0.158900000000     0.387800000000     0.157600000000     0          
H        H      0.204300000000     0.292800000000     0.153000000000     0          
H        H      0.197400000000     0.325300000000     0.194100000000     0          
H        H      0.131800000000     0.301900000000     0.172900000000     0          
H        H      0.125600000000     0.333100000000     0.214900000000     0          
H        H      0.149850000000     0.280500000000     0.214300000000     0          
H        H      0.455200000000     0.572000000000     0.808600000000     0          
H        H      0.465750000000     0.569200000000     0.729800000000     0          
H        H      0.435850000000     0.523800000000     0.699200000000     0          
H        H      0.395150000000     0.482500000000     0.748700000000     0          
H        H      0.309500000000     0.416600000000     0.008400000000     0          
H        H      0.311550000000     0.389800000000     0.965000000000     0          
H        H      0.348200000000     0.342000000000     0.015600000000     0          
H        H      0.379550000000     0.372300000000     0.003500000000     0          
H        H      0.369400000000     0.318500000000     0.937900000000     0          
H        H      0.400900000000     0.348500000000     0.926100000000     0          
H        H      0.408650000000     0.269700000000     0.984100000000     0          
H        H      0.440500000000     0.299300000000     0.971100000000     0          
H        H      0.452600000000     0.276800000000     0.891600000000     0          
H        H      0.471900000000     0.238700000000     0.923700000000     0          
H        H      0.430450000000     0.238600000000     0.913200000000     0          
H        H      0.155450000000     0.480600000000     0.571200000000     0          
H        H      0.174900000000     0.478900000000     0.637500000000     0          
H        H      0.206000000000     0.342000000000     0.633600000000     0          
H        H      0.186200000000     0.346400000000     0.567200000000     0          
H        H      0.199200000000     0.379500000000     0.706500000000     0          
H        H      0.183500000000     0.433800000000     0.709400000000     0          
H        H      0.050450000000     0.309900000000     0.715100000000     0          
H        H      0.007250000000     0.317500000000     0.788900000000     0          
H        H      0.438650000000     0.363200000000     0.803400000000     0          
H        H      0.415450000000     0.401100000000     0.743100000000     0          
H        H      0.476500000000     0.433500000000     0.472100000000     0          
H        H      0.432300000000     0.452700000000     0.506900000000     0          
H        H      0.461500000000     0.359000000000     0.475400000000     0          
H        H      0.415650000000     0.383300000000     0.503900000000     0          
H        H      0.426700000000     0.436400000000     0.431800000000     0          
H        H      0.450800000000     0.387300000000     0.410500000000     0          
H        H      0.376050000000     0.418200000000     0.455800000000     0          
H        H      0.399000000000     0.367300000000     0.440100000000     0          
H        H      0.412350000000     0.407300000000     0.358100000000     0          
H        H      0.369650000000     0.441700000000     0.383300000000     0          
H        H      0.372750000000     0.389400000000     0.378200000000     0          
H        H      0.443700000000     0.334200000000     0.585400000000     0          
H        H      0.414700000000     0.275600000000     0.584800000000     0          
H        H      0.020850000000     0.185100000000     0.596300000000     0          
H        H      0.048500000000     0.246100000000     0.593100000000     0          
H        H      0.464300000000     0.163400000000     0.562400000000     0          
H        H      0.452800000000     0.161600000000     0.616400000000     0          
H        H      0.336350000000     0.353900000000     0.598100000000     0          
H        H      0.290350000000     0.352700000000     0.557900000000     0          
H        H      0.264550000000     0.416300000000     0.514100000000     0          
H        H      0.288900000000     0.480500000000     0.510900000000     0          
H        H      0.451200000000     0.575000000000     0.574200000000     0          
H        H      0.414000000000     0.606500000000     0.556900000000     0          
H        H      0.420950000000     0.638300000000     0.622100000000     0          
H        H      0.411950000000     0.595100000000     0.651300000000     0          
H        H      0.344050000000     0.616300000000     0.644700000000     0          
H        H      0.352800000000     0.657600000000     0.612200000000     0          
H        H      0.350700000000     0.653000000000     0.707200000000     0          
H        H      0.360050000000     0.694100000000     0.674700000000     0          
H        H      0.282750000000     0.672900000000     0.698100000000     0          
H        H      0.292150000000     0.714900000000     0.666900000000     0          
H        H      0.290100000000     0.714300000000     0.719500000000     0          
H        H      0.241200000000     0.308600000000     0.428000000000     0          
H        H      0.250350000000     0.229800000000     0.430800000000     0          
H        H      0.197750000000     0.199200000000     0.476200000000     0          
H        H      0.136400000000     0.248700000000     0.517500000000     0          
H        H      0.017800000000     0.508400000000     0.583400000000     0          
H        H      0.006450000000     0.465000000000     0.610200000000     0          
H        H      0.019200000000     0.515600000000     0.658000000000     0          
H        H      0.065700000000     0.503500000000     0.627700000000     0          
H        H      0.028650000000     0.437900000000     0.681500000000     0          
H        H      0.075150000000     0.426100000000     0.651500000000     0          
H        H      0.043500000000     0.484100000000     0.730300000000     0          
H        H      0.090150000000     0.471100000000     0.700700000000     0          
H        H      0.091000000000     0.391600000000     0.723200000000     0          
H        H      0.091250000000     0.423700000000     0.761300000000     0          
H        H      0.049750000000     0.413200000000     0.761400000000     0          
H        H      0.395750000000     0.071200000000     0.519400000000     0          
H        H      0.414350000000     0.137500000000     0.521100000000     0          
H        H      0.377000000000     0.133600000000     0.658000000000     0          
H        H      0.359400000000     0.067200000000     0.653600000000     0          
H        H      0.388950000000     0.206500000000     0.620500000000     0          
H        H      0.400400000000     0.209400000000     0.566200000000     0          
H        H      0.312950000000     0.190100000000     0.784900000000     0          
H        H      0.310450000000     0.182500000000     0.711100000000     0          
H        H      0.271950000000     0.136800000000     0.696600000000     0          
H        H      0.237550000000     0.098900000000     0.756900000000     0          
H        H      0.179300000000     0.066500000000     0.027900000000     0          
H        H      0.162100000000     0.047300000000     0.993100000000     0          
H        H      0.128700000000     0.141000000000     0.024600000000     0          
H        H      0.109250000000     0.116700000000     0.996100000000     0          
H        H      0.110800000000     0.063600000000     0.068200000000     0          
H        H      0.099700000000     0.112700000000     0.089500000000     0          
H        H      0.063050000000     0.081800000000     0.044200000000     0          
H        H      0.052700000000     0.132700000000     0.059900000000     0          
H        H      0.045050000000     0.092700000000     0.141900000000     0          
H        H      0.032150000000     0.058300000000     0.116700000000     0          
H        H      0.006550000000     0.110600000000     0.121800000000     0          
H        H      0.153500000000     0.165800000000     0.914600000000     0          
H        H      0.094900000000     0.224400000000     0.915200000000     0          
H        H      0.161550000000     0.314900000000     0.903700000000     0          
H        H      0.218100000000     0.253900000000     0.906900000000     0          
H        H      0.077200000000     0.336600000000     0.937600000000     0          
H        H      0.091800000000     0.338400000000     0.883600000000     0          
H        H      0.062350000000     0.146100000000     0.901900000000     0          
H        H      0.495650000000     0.147300000000     0.942100000000     0          
H        H      0.479750000000     0.083700000000     0.985900000000     0          
H        H      0.034600000000     0.019500000000     0.989100000000     0          
H        H      0.275800000000     0.925000000000     0.925800000000     0          
H        H      0.245700000000     0.893500000000     0.943100000000     0          
H        H      0.301150000000     0.861700000000     0.877900000000     0          
H        H      0.285150000000     0.904900000000     0.848700000000     0          
H        H      0.224550000000     0.883700000000     0.855300000000     0          
H        H      0.237700000000     0.842400000000     0.887800000000     0          
H        H      0.280800000000     0.847000000000     0.792800000000     0          
H        H      0.294450000000     0.805900000000     0.825300000000     0          
H        H      0.218250000000     0.827100000000     0.801900000000     0          
H        H      0.233050000000     0.785100000000     0.833100000000     0          
H        H      0.257000000000     0.785700000000     0.780500000000     0          
H        H      0.359500000000     0.191400000000     0.072000000000     0          
H        H      0.330650000000     0.270200000000     0.069200000000     0          
H        H      0.285450000000     0.300800000000     0.023800000000     0          
H        H      0.269500000000     0.251300000000     0.982500000000     0          
H        H      0.313700000000     0.991600000000     0.916600000000     0          
H        H      0.294050000000     0.035000000000     0.889800000000     0          
H        H      0.356000000000     0.984400000000     0.842000000000     0          
H        H      0.381300000000     0.996500000000     0.872300000000     0          
H        H      0.338350000000     0.062100000000     0.818500000000     0          
H        H      0.363950000000     0.073900000000     0.848500000000     0          
H        H      0.400700000000     0.015900000000     0.769700000000     0          
H        H      0.426050000000     0.028900000000     0.799300000000     0          
H        H      0.398400000000     0.108400000000     0.776800000000     0          
H        H      0.433750000000     0.076300000000     0.738700000000     0          
H        H      0.387050000000     0.086800000000     0.738600000000     0          
H        H      0.441050000000     0.428800000000     0.980600000000     0          
H        H      0.493650000000     0.362500000000     0.978900000000     0          
H        H      0.022800000000     0.366400000000     0.842000000000     0          
H        H      0.469800000000     0.432800000000     0.846400000000     0          
H        H      0.052450000000     0.293500000000     0.879500000000     0          
H        H      0.038200000000     0.290600000000     0.933800000000     0          
C        C      0.315555000000     0.816770000000     0.350410000000     0          
C        C      0.312850000000     0.779550000000     0.328250000000     0          
C        C      0.336325000000     0.735320000000     0.332780000000     0          
C        C      0.363540000000     0.726530000000     0.360110000000     0          
C        C      0.366120000000     0.762780000000     0.382340000000     0          
C        C      0.343265000000     0.807930000000     0.378010000000     0          
C        C      0.348835000000     0.844610000000     0.403450000000     0          
C        C      0.323050000000     0.962850000000     0.407550000000     0          
C        C      0.332070000000     0.002630000000     0.425090000000     0          
C        C      0.366180000000     0.019550000000     0.388130000000     0          
C        C      0.369950000000     0.064100000000     0.403700000000     0          
C        C      0.401700000000     0.067600000000     0.399200000000     0          
C        C      0.407500000000     0.117200000000     0.410600000000     0          
C        C      0.388430000000     0.913310000000     0.303770000000     0          
C        C      0.423650000000     0.913100000000     0.268900000000     0          
C        C      0.423570000000     0.909600000000     0.222720000000     0          
C        C      0.387625000000     0.906720000000     0.215180000000     0          
C        C      0.352825000000     0.908300000000     0.252000000000     0          
C        C      0.461400000000     0.909800000000     0.181200000000     0          
C        C      0.450835000000     0.918260000000     0.419600000000     0          
C        C      0.483635000000     0.918480000000     0.379980000000     0          
C        C      0.011420000000     0.943110000000     0.379210000000     0          
C        C      0.007980000000     0.969860000000     0.417020000000     0          
C        C      0.474420000000     0.971020000000     0.455300000000     0          
C        C      0.445410000000     0.946250000000     0.457910000000     0          
C        C      0.409960000000     0.952130000000     0.499030000000     0          
C        C      0.324425000000     0.912870000000     0.546630000000     0          
C        C      0.285520000000     0.917940000000     0.586780000000     0          
C        C      0.286580000000     0.874050000000     0.615230000000     0          
C        C      0.321005000000     0.861550000000     0.639430000000     0          
C        C      0.319740000000     0.819260000000     0.671180000000     0          
C        C      0.354100000000     0.807620000000     0.695580000000     0          
C        C      0.153570000000     0.027880000000     0.327240000000     0          
C        C      0.131585000000     0.053670000000     0.296790000000     0          
C        C      0.149820000000     0.052120000000     0.249400000000     0          
C        C      0.190405000000     0.025190000000     0.230990000000     0          
C        C      0.212045000000     0.000540000000     0.260880000000     0          
C        C      0.194620000000     0.001540000000     0.309180000000     0          
C        C      0.220505000000     0.973100000000     0.337680000000     0          
C        C      0.210940000000     0.935210000000     0.448630000000     0          
C        C      0.231455000000     0.901190000000     0.479990000000     0          
C        C      0.212540000000     0.860530000000     0.491510000000     0          
C        C      0.222355000000     0.829760000000     0.450020000000     0          
C        C      0.204400000000     0.788180000000     0.459820000000     0          
C        C      0.215550000000     0.757900000000     0.418300000000     0          
C        C      0.066095000000     0.952140000000     0.083880000000     0          
C        C      0.035325000000     0.951340000000     0.124160000000     0          
C        C      0.031685000000     0.909490000000     0.144970000000     0          
C        C      0.058415000000     0.870860000000     0.121880000000     0          
C        C      0.088610000000     0.873640000000     0.081520000000     0          
C        C      0.498750000000     0.907900000000     0.190100000000     0          
C        C      0.149145000000     0.683230000000     0.149590000000     0          
C        C      0.116750000000     0.720450000000     0.171750000000     0          
C        C      0.120375000000     0.764680000000     0.167220000000     0          
C        C      0.156860000000     0.773470000000     0.139890000000     0          
C        C      0.188680000000     0.737220000000     0.117660000000     0          
C        C      0.186235000000     0.692070000000     0.121990000000     0          
C        C      0.222865000000     0.655390000000     0.096550000000     0          
C        C      0.258250000000     0.537150000000     0.092450000000     0          
C        C      0.295930000000     0.497370000000     0.074910000000     0          
C        C      0.320020000000     0.480450000000     0.111870000000     0          
C        C      0.353850000000     0.435900000000     0.096300000000     0          
C        C      0.385100000000     0.432400000000     0.100800000000     0          
C        C      0.421400000000     0.382800000000     0.089400000000     0          
C        C      0.246970000000     0.586690000000     0.196230000000     0          
C        C      0.264650000000     0.586900000000     0.231100000000     0          
C        C      0.239730000000     0.590400000000     0.277280000000     0          
C        C      0.198575000000     0.593280000000     0.284820000000     0          
C        C      0.182975000000     0.591700000000     0.248000000000     0          
C        C      0.256900000000     0.590200000000     0.318800000000     0          
C        C      0.369765000000     0.581740000000     0.080400000000     0          
C        C      0.382865000000     0.581520000000     0.120020000000     0          
C        C      0.422580000000     0.556890000000     0.120790000000     0          
C        C      0.451420000000     0.530140000000     0.082980000000     0          
C        C      0.437580000000     0.528980000000     0.044700000000     0          
C        C      0.397490000000     0.553750000000     0.042090000000     0          
C        C      0.385540000000     0.547870000000     0.000970000000     0          
C        C      0.304175000000     0.587130000000     0.953370000000     0          
C        C      0.287880000000     0.582060000000     0.913220000000     0          
C        C      0.281220000000     0.625950000000     0.884770000000     0          
C        C      0.321495000000     0.638450000000     0.860570000000     0          
C        C      0.314960000000     0.680740000000     0.828820000000     0          
C        C      0.355700000000     0.692380000000     0.804420000000     0          
C        C      0.081130000000     0.472120000000     0.172760000000     0          
C        C      0.056815000000     0.446330000000     0.203210000000     0          
C        C      0.050580000000     0.447880000000     0.250600000000     0          
C        C      0.068495000000     0.474810000000     0.269010000000     0          
C        C      0.092755000000     0.499460000000     0.239120000000     0          
C        C      0.099980000000     0.498460000000     0.190820000000     0          
C        C      0.125895000000     0.526900000000     0.162320000000     0          
C        C      0.152860000000     0.564790000000     0.051370000000     0          
C        C      0.172045000000     0.598810000000     0.020010000000     0          
C        C      0.138560000000     0.639470000000     0.008490000000     0          
C        C      0.112245000000     0.670240000000     0.049980000000     0          
C        C      0.078400000000     0.711820000000     0.040180000000     0          
C        C      0.053650000000     0.742100000000     0.081700000000     0          
C        C      0.334105000000     0.547860000000     0.416120000000     0          
C        C      0.323075000000     0.548660000000     0.375840000000     0          
C        C      0.308915000000     0.590510000000     0.355030000000     0          
C        C      0.304785000000     0.629140000000     0.378120000000     0          
C        C      0.316190000000     0.626360000000     0.418480000000     0          
C        C      0.297750000000     0.592100000000     0.309900000000     0          
C        C      0.490760000000     0.649590000000     0.316770000000     0          
C        C      0.476975000000     0.671750000000     0.279550000000     0          
C        C      0.002715000000     0.667220000000     0.235320000000     0          
C        C      0.043595000000     0.639890000000     0.226530000000     0          
C        C      0.057290000000     0.617660000000     0.262780000000     0          
C        C      0.032270000000     0.621990000000     0.307930000000     0          
C        C      0.050560000000     0.596550000000     0.344610000000     0          
C        C      0.026825000000     0.592450000000     0.462850000000     0          
C        C      0.044615000000     0.574910000000     0.502630000000     0          
C        C      0.060245000000     0.611870000000     0.519550000000     0          
C        C      0.071800000000     0.596300000000     0.564100000000     0          
C        C      0.101300000000     0.600800000000     0.567600000000     0          
C        C      0.112800000000     0.589400000000     0.617200000000     0          
C        C      0.040315000000     0.696230000000     0.413310000000     0          
C        C      0.058100000000     0.731100000000     0.413100000000     0          
C        C      0.034930000000     0.777280000000     0.409600000000     0          
C        C      0.495215000000     0.784820000000     0.406720000000     0          
C        C      0.478825000000     0.748000000000     0.408300000000     0          
C        C      0.052000000000     0.818800000000     0.409800000000     0          
C        C      0.160635000000     0.580400000000     0.418260000000     0          
C        C      0.173625000000     0.620020000000     0.418480000000     0          
C        C      0.201025000000     0.620790000000     0.443110000000     0          
C        C      0.216490000000     0.582980000000     0.469860000000     0          
C        C      0.202070000000     0.544700000000     0.471020000000     0          
C        C      0.174365000000     0.542090000000     0.446250000000     0          
C        C      0.159475000000     0.500970000000     0.452130000000     0          
C        C      0.097740000000     0.453370000000     0.412870000000     0          
C        C      0.078910000000     0.413220000000     0.417940000000     0          
C        C      0.094195000000     0.384770000000     0.374050000000     0          
C        C      0.140720000000     0.360570000000     0.361550000000     0          
C        C      0.155330000000     0.328820000000     0.319260000000     0          
C        C      0.201890000000     0.304420000000     0.307620000000     0          
C        C      0.317190000000     0.672760000000     0.527880000000     0          
C        C      0.279980000000     0.703210000000     0.553670000000     0          
C        C      0.274520000000     0.750600000000     0.552120000000     0          
C        C      0.305900000000     0.769010000000     0.525190000000     0          
C        C      0.342485000000     0.739120000000     0.500540000000     0          
C        C      0.349210000000     0.690820000000     0.501540000000     0          
C        C      0.389345000000     0.662320000000     0.473100000000     0          
C        C      0.435255000000     0.551370000000     0.435210000000     0          
C        C      0.471450000000     0.520010000000     0.401190000000     0          
C        C      0.458295000000     0.508490000000     0.360530000000     0          
C        C      0.447365000000     0.549980000000     0.329760000000     0          
C        C      0.434310000000     0.540180000000     0.288180000000     0          
C        C      0.424700000000     0.581700000000     0.257900000000     0          
C        C      0.108035000000     0.916120000000     0.452140000000     0          
C        C      0.097405000000     0.875840000000     0.451340000000     0          
C        C      0.104170000000     0.855030000000     0.409490000000     0          
C        C      0.119355000000     0.878120000000     0.370860000000     0          
C        C      0.129370000000     0.918480000000     0.373640000000     0          
C        C      0.093800000000     0.809900000000     0.407900000000     0          
C        C      0.223940000000     0.850410000000     0.183230000000     0          
C        C      0.202625000000     0.828250000000     0.220450000000     0          
C        C      0.203985000000     0.832780000000     0.264680000000     0          
C        C      0.226805000000     0.860110000000     0.273470000000     0          
C        C      0.247510000000     0.882340000000     0.237220000000     0          
C        C      0.247230000000     0.878010000000     0.192070000000     0          
C        C      0.271140000000     0.903450000000     0.155390000000     0          
C        C      0.304475000000     0.907550000000     0.037150000000     0          
C        C      0.333385000000     0.925090000000     0.997370000000     0          
C        C      0.375955000000     0.888130000000     0.980450000000     0          
C        C      0.402000000000     0.903700000000     0.935900000000     0          
C        C      0.435500000000     0.899200000000     0.932400000000     0          
C        C      0.466100000000     0.910600000000     0.882800000000     0          
C        C      0.345085000000     0.803770000000     0.086690000000     0          
C        C      0.380200000000     0.768900000000     0.086900000000     0          
C        C      0.378370000000     0.722720000000     0.090400000000     0          
C        C      0.340985000000     0.715180000000     0.093280000000     0          
C        C      0.306975000000     0.752000000000     0.091700000000     0          
C        C      0.416300000000     0.681200000000     0.090200000000     0          
C        C      0.409965000000     0.919600000000     0.081740000000     0          
C        C      0.442875000000     0.879980000000     0.081520000000     0          
C        C      0.482975000000     0.879210000000     0.056890000000     0          
C        C      0.492910000000     0.917020000000     0.030140000000     0          
C        C      0.459930000000     0.955300000000     0.028980000000     0          
C        C      0.418535000000     0.957910000000     0.053750000000     0          
C        C      0.386025000000     0.999030000000     0.047870000000     0          
C        C      0.280860000000     0.046630000000     0.087130000000     0          
C        C      0.244490000000     0.086780000000     0.082060000000     0          
C        C      0.223605000000     0.115230000000     0.125950000000     0          
C        C      0.251780000000     0.139430000000     0.138450000000     0          
C        C      0.229370000000     0.171180000000     0.180740000000     0          
C        C      0.257910000000     0.195580000000     0.192380000000     0          
C        C      0.167510000000     0.827240000000     0.972120000000     0          
C        C      0.158420000000     0.796790000000     0.946330000000     0          
C        C      0.175880000000     0.749400000000     0.947880000000     0          
C        C      0.203000000000     0.730990000000     0.974810000000     0          
C        C      0.212315000000     0.760880000000     0.999460000000     0          
C        C      0.195390000000     0.809180000000     0.998460000000     0          
C        C      0.207055000000     0.837680000000     0.026900000000     0          
C        C      0.178545000000     0.948630000000     0.064790000000     0          
C        C      0.182050000000     0.979990000000     0.098810000000     0          
C        C      0.142805000000     0.991510000000     0.139470000000     0          
C        C      0.137235000000     0.950020000000     0.170240000000     0          
C        C      0.098490000000     0.959820000000     0.211820000000     0          
C        C      0.094500000000     0.918300000000     0.242100000000     0          
C        C      0.042165000000     0.583880000000     0.047860000000     0          
C        C      0.010995000000     0.624160000000     0.048660000000     0          
C        C      0.486430000000     0.644970000000     0.090510000000     0          
C        C      0.493845000000     0.621880000000     0.129140000000     0          
C        C      0.025430000000     0.581520000000     0.126360000000     0          
C        C      0.452700000000     0.690100000000     0.092100000000     0          
C        C      0.184445000000     0.183230000000     0.649590000000     0          
C        C      0.187150000000     0.220450000000     0.671750000000     0          
C        C      0.163675000000     0.264680000000     0.667220000000     0          
C        C      0.136460000000     0.273470000000     0.639890000000     0          
C        C      0.133880000000     0.237220000000     0.617660000000     0          
C        C      0.156735000000     0.192070000000     0.621990000000     0          
C        C      0.151165000000     0.155390000000     0.596550000000     0          
C        C      0.176950000000     0.037150000000     0.592450000000     0          
C        C      0.167930000000     0.997370000000     0.574910000000     0          
C        C      0.133820000000     0.980450000000     0.611870000000     0          
C        C      0.130050000000     0.935900000000     0.596300000000     0          
C        C      0.098300000000     0.932400000000     0.600800000000     0          
C        C      0.092500000000     0.882800000000     0.589400000000     0          
C        C      0.111570000000     0.086690000000     0.696230000000     0          
C        C      0.076350000000     0.086900000000     0.731100000000     0          
C        C      0.076430000000     0.090400000000     0.777280000000     0          
C        C      0.112375000000     0.093280000000     0.784820000000     0          
C        C      0.147175000000     0.091700000000     0.748000000000     0          
C        C      0.038600000000     0.090200000000     0.818800000000     0          
C        C      0.049165000000     0.081740000000     0.580400000000     0          
C        C      0.016365000000     0.081520000000     0.620020000000     0          
C        C      0.488580000000     0.056890000000     0.620790000000     0          
C        C      0.492020000000     0.030140000000     0.582980000000     0          
C        C      0.025580000000     0.028980000000     0.544700000000     0          
C        C      0.054590000000     0.053750000000     0.542090000000     0          
C        C      0.090040000000     0.047870000000     0.500970000000     0          
C        C      0.175575000000     0.087130000000     0.453370000000     0          
C        C      0.214480000000     0.082060000000     0.413220000000     0          
C        C      0.213420000000     0.125950000000     0.384770000000     0          
C        C      0.178995000000     0.138450000000     0.360570000000     0          
C        C      0.180260000000     0.180740000000     0.328820000000     0          
C        C      0.145900000000     0.192380000000     0.304420000000     0          
C        C      0.346430000000     0.972120000000     0.672760000000     0          
C        C      0.368415000000     0.946330000000     0.703210000000     0          
C        C      0.350180000000     0.947880000000     0.750600000000     0          
C        C      0.309595000000     0.974810000000     0.769010000000     0          
C        C      0.287955000000     0.999460000000     0.739120000000     0          
C        C      0.305380000000     0.998460000000     0.690820000000     0          
C        C      0.279495000000     0.026900000000     0.662320000000     0          
C        C      0.289060000000     0.064790000000     0.551370000000     0          
C        C      0.268545000000     0.098810000000     0.520010000000     0          
C        C      0.287460000000     0.139470000000     0.508490000000     0          
C        C      0.277645000000     0.170240000000     0.549980000000     0          
C        C      0.295600000000     0.211820000000     0.540180000000     0          
C        C      0.284450000000     0.242100000000     0.581700000000     0          
C        C      0.433905000000     0.047860000000     0.916120000000     0          
C        C      0.464675000000     0.048660000000     0.875840000000     0          
C        C      0.468315000000     0.090510000000     0.855030000000     0          
C        C      0.441585000000     0.129140000000     0.878120000000     0          
C        C      0.411390000000     0.126360000000     0.918480000000     0          
C        C      0.001250000000     0.092100000000     0.809900000000     0          
C        C      0.350855000000     0.316770000000     0.850410000000     0          
C        C      0.383250000000     0.279550000000     0.828250000000     0          
C        C      0.379625000000     0.235320000000     0.832780000000     0          
C        C      0.343140000000     0.226530000000     0.860110000000     0          
C        C      0.311320000000     0.262780000000     0.882340000000     0          
C        C      0.313765000000     0.307930000000     0.878010000000     0          
C        C      0.277135000000     0.344610000000     0.903450000000     0          
C        C      0.241750000000     0.462850000000     0.907550000000     0          
C        C      0.204070000000     0.502630000000     0.925090000000     0          
C        C      0.179980000000     0.519550000000     0.888130000000     0          
C        C      0.146150000000     0.564100000000     0.903700000000     0          
C        C      0.114900000000     0.567600000000     0.899200000000     0          
C        C      0.078600000000     0.617200000000     0.910600000000     0          
C        C      0.253030000000     0.413310000000     0.803770000000     0          
C        C      0.235350000000     0.413100000000     0.768900000000     0          
C        C      0.260270000000     0.409600000000     0.722720000000     0          
C        C      0.301425000000     0.406720000000     0.715180000000     0          
C        C      0.317025000000     0.408300000000     0.752000000000     0          
C        C      0.243100000000     0.409800000000     0.681200000000     0          
C        C      0.130235000000     0.418260000000     0.919600000000     0          
C        C      0.117135000000     0.418480000000     0.879980000000     0          
C        C      0.077420000000     0.443110000000     0.879210000000     0          
C        C      0.048580000000     0.469860000000     0.917020000000     0          
C        C      0.062420000000     0.471020000000     0.955300000000     0          
C        C      0.102510000000     0.446250000000     0.957910000000     0          
C        C      0.114460000000     0.452130000000     0.999030000000     0          
C        C      0.195825000000     0.412870000000     0.046630000000     0          
C        C      0.212120000000     0.417940000000     0.086780000000     0          
C        C      0.218780000000     0.374050000000     0.115230000000     0          
C        C      0.178505000000     0.361550000000     0.139430000000     0          
C        C      0.185040000000     0.319260000000     0.171180000000     0          
C        C      0.144300000000     0.307620000000     0.195580000000     0          
C        C      0.418870000000     0.527880000000     0.827240000000     0          
C        C      0.443185000000     0.553670000000     0.796790000000     0          
C        C      0.449420000000     0.552120000000     0.749400000000     0          
C        C      0.431505000000     0.525190000000     0.730990000000     0          
C        C      0.407245000000     0.500540000000     0.760880000000     0          
C        C      0.400020000000     0.501540000000     0.809180000000     0          
C        C      0.374105000000     0.473100000000     0.837680000000     0          
C        C      0.347140000000     0.435210000000     0.948630000000     0          
C        C      0.327955000000     0.401190000000     0.979990000000     0          
C        C      0.361440000000     0.360530000000     0.991510000000     0          
C        C      0.387755000000     0.329760000000     0.950020000000     0          
C        C      0.421600000000     0.288180000000     0.959820000000     0          
C        C      0.446350000000     0.257900000000     0.918300000000     0          
C        C      0.165895000000     0.452140000000     0.583880000000     0          
C        C      0.176925000000     0.451340000000     0.624160000000     0          
C        C      0.191085000000     0.409490000000     0.644970000000     0          
C        C      0.195215000000     0.370860000000     0.621880000000     0          
C        C      0.183810000000     0.373640000000     0.581520000000     0          
C        C      0.202250000000     0.407900000000     0.690100000000     0          
C        C      0.009240000000     0.350410000000     0.683230000000     0          
C        C      0.023025000000     0.328250000000     0.720450000000     0          
C        C      0.497285000000     0.332780000000     0.764680000000     0          
C        C      0.456405000000     0.360110000000     0.773470000000     0          
C        C      0.442710000000     0.382340000000     0.737220000000     0          
C        C      0.467730000000     0.378010000000     0.692070000000     0          
C        C      0.449440000000     0.403450000000     0.655390000000     0          
C        C      0.473175000000     0.407550000000     0.537150000000     0          
C        C      0.455385000000     0.425090000000     0.497370000000     0          
C        C      0.439755000000     0.388130000000     0.480450000000     0          
C        C      0.428200000000     0.403700000000     0.435900000000     0          
C        C      0.398700000000     0.399200000000     0.432400000000     0          
C        C      0.387200000000     0.410600000000     0.382800000000     0          
C        C      0.459685000000     0.303770000000     0.586690000000     0          
C        C      0.441900000000     0.268900000000     0.586900000000     0          
C        C      0.465070000000     0.222720000000     0.590400000000     0          
C        C      0.004785000000     0.215180000000     0.593280000000     0          
C        C      0.021175000000     0.252000000000     0.591700000000     0          
C        C      0.448000000000     0.181200000000     0.590200000000     0          
C        C      0.339365000000     0.419600000000     0.581740000000     0          
C        C      0.326375000000     0.379980000000     0.581520000000     0          
C        C      0.298975000000     0.379210000000     0.556890000000     0          
C        C      0.283510000000     0.417020000000     0.530140000000     0          
C        C      0.297930000000     0.455300000000     0.528980000000     0          
C        C      0.325635000000     0.457910000000     0.553750000000     0          
C        C      0.340525000000     0.499030000000     0.547870000000     0          
C        C      0.402260000000     0.546630000000     0.587130000000     0          
C        C      0.421090000000     0.586780000000     0.582060000000     0          
C        C      0.405805000000     0.615230000000     0.625950000000     0          
C        C      0.359280000000     0.639430000000     0.638450000000     0          
C        C      0.344670000000     0.671180000000     0.680740000000     0          
C        C      0.298110000000     0.695580000000     0.692380000000     0          
C        C      0.182810000000     0.327240000000     0.472120000000     0          
C        C      0.220020000000     0.296790000000     0.446330000000     0          
C        C      0.225480000000     0.249400000000     0.447880000000     0          
C        C      0.194100000000     0.230990000000     0.474810000000     0          
C        C      0.157515000000     0.260880000000     0.499460000000     0          
C        C      0.150790000000     0.309180000000     0.498460000000     0          
C        C      0.110655000000     0.337680000000     0.526900000000     0          
C        C      0.064745000000     0.448630000000     0.564790000000     0          
C        C      0.028550000000     0.479990000000     0.598810000000     0          
C        C      0.041705000000     0.491510000000     0.639470000000     0          
C        C      0.052635000000     0.450020000000     0.670240000000     0          
C        C      0.065690000000     0.459820000000     0.711820000000     0          
C        C      0.075300000000     0.418300000000     0.742100000000     0          
C        C      0.391965000000     0.083880000000     0.547860000000     0          
C        C      0.402595000000     0.124160000000     0.548660000000     0          
C        C      0.395830000000     0.144970000000     0.590510000000     0          
C        C      0.380645000000     0.121880000000     0.629140000000     0          
C        C      0.370630000000     0.081520000000     0.626360000000     0          
C        C      0.406200000000     0.190100000000     0.592100000000     0          
C        C      0.276060000000     0.149590000000     0.816770000000     0          
C        C      0.297375000000     0.171750000000     0.779550000000     0          
C        C      0.296015000000     0.167220000000     0.735320000000     0          
C        C      0.273195000000     0.139890000000     0.726530000000     0          
C        C      0.252490000000     0.117660000000     0.762780000000     0          
C        C      0.252770000000     0.121990000000     0.807930000000     0          
C        C      0.228860000000     0.096550000000     0.844610000000     0          
C        C      0.195525000000     0.092450000000     0.962850000000     0          
C        C      0.166615000000     0.074910000000     0.002630000000     0          
C        C      0.124045000000     0.111870000000     0.019550000000     0          
C        C      0.098000000000     0.096300000000     0.064100000000     0          
C        C      0.064500000000     0.100800000000     0.067600000000     0          
C        C      0.033900000000     0.089400000000     0.117200000000     0          
C        C      0.154915000000     0.196230000000     0.913310000000     0          
C        C      0.119800000000     0.231100000000     0.913100000000     0          
C        C      0.121630000000     0.277280000000     0.909600000000     0          
C        C      0.159015000000     0.284820000000     0.906720000000     0          
C        C      0.193025000000     0.248000000000     0.908300000000     0          
C        C      0.083700000000     0.318800000000     0.909800000000     0          
C        C      0.090035000000     0.080400000000     0.918260000000     0          
C        C      0.057125000000     0.120020000000     0.918480000000     0          
C        C      0.017025000000     0.120790000000     0.943110000000     0          
C        C      0.007090000000     0.082980000000     0.969860000000     0          
C        C      0.040070000000     0.044700000000     0.971020000000     0          
C        C      0.081465000000     0.042090000000     0.946250000000     0          
C        C      0.113975000000     0.000970000000     0.952130000000     0          
C        C      0.219140000000     0.953370000000     0.912870000000     0          
C        C      0.255510000000     0.913220000000     0.917940000000     0          
C        C      0.276395000000     0.884770000000     0.874050000000     0          
C        C      0.248220000000     0.860570000000     0.861550000000     0          
C        C      0.270630000000     0.828820000000     0.819260000000     0          
C        C      0.242090000000     0.804420000000     0.807620000000     0          
C        C      0.332490000000     0.172760000000     0.027880000000     0          
C        C      0.341580000000     0.203210000000     0.053670000000     0          
C        C      0.324120000000     0.250600000000     0.052120000000     0          
C        C      0.297000000000     0.269010000000     0.025190000000     0          
C        C      0.287685000000     0.239120000000     0.000540000000     0          
C        C      0.304610000000     0.190820000000     0.001540000000     0          
C        C      0.292945000000     0.162320000000     0.973100000000     0          
C        C      0.321455000000     0.051370000000     0.935210000000     0          
C        C      0.317950000000     0.020010000000     0.901190000000     0          
C        C      0.357195000000     0.008490000000     0.860530000000     0          
C        C      0.362765000000     0.049980000000     0.829760000000     0          
C        C      0.401510000000     0.040180000000     0.788180000000     0          
C        C      0.405500000000     0.081700000000     0.757900000000     0          
C        C      0.457835000000     0.416120000000     0.952140000000     0          
C        C      0.489005000000     0.375840000000     0.951340000000     0          
C        C      0.013570000000     0.355030000000     0.909490000000     0          
C        C      0.006155000000     0.378120000000     0.870860000000     0          
C        C      0.474570000000     0.418480000000     0.873640000000     0          
C        C      0.047300000000     0.309900000000     0.907900000000     0          
N        N      0.328340000000     0.888480000000     0.397940000000     0          
N        N      0.337870000000     0.920940000000     0.421980000000     0          
N        N      0.352960000000     0.911770000000     0.296390000000     0          
N        N      0.381885000000     0.929600000000     0.502660000000     0          
N        N      0.348390000000     0.939400000000     0.543840000000     0          
N        N      0.203625000000     0.969820000000     0.382300000000     0          
N        N      0.230200000000     0.938300000000     0.405500000000     0          
N        N      0.092330000000     0.914070000000     0.062410000000     0          
N        N      0.221550000000     0.611520000000     0.102060000000     0          
N        N      0.259330000000     0.579060000000     0.078020000000     0          
N        N      0.207040000000     0.588230000000     0.203610000000     0          
N        N      0.348015000000     0.570400000000     0.997340000000     0          
N        N      0.340010000000     0.560600000000     0.956160000000     0          
N        N      0.129685000000     0.530180000000     0.117700000000     0          
N        N      0.152100000000     0.561700000000     0.094500000000     0          
N        N      0.330570000000     0.585930000000     0.437590000000     0          
N        N      0.027310000000     0.602060000000     0.388480000000     0          
N        N      0.048860000000     0.578020000000     0.420940000000     0          
N        N      0.001155000000     0.703610000000     0.411770000000     0          
N        N      0.133215000000     0.497340000000     0.429600000000     0          
N        N      0.120310000000     0.456160000000     0.439400000000     0          
N        N      0.394775000000     0.617700000000     0.469820000000     0          
N        N      0.432950000000     0.594500000000     0.438300000000     0          
N        N      0.123535000000     0.937590000000     0.414070000000     0          
N        N      0.272580000000     0.897940000000     0.111520000000     0          
N        N      0.298340000000     0.921980000000     0.079060000000     0          
N        N      0.308845000000     0.796390000000     0.088230000000     0          
N        N      0.346685000000     0.002660000000     0.070400000000     0          
N        N      0.318090000000     0.043840000000     0.060600000000     0          
N        N      0.188535000000     0.882300000000     0.030180000000     0          
N        N      0.199350000000     0.905500000000     0.061700000000     0          
N        N      0.049365000000     0.562410000000     0.085930000000     0          
N        N      0.171660000000     0.111520000000     0.602060000000     0          
N        N      0.162130000000     0.079060000000     0.578020000000     0          
N        N      0.147040000000     0.088230000000     0.703610000000     0          
N        N      0.118115000000     0.070400000000     0.497340000000     0          
N        N      0.151610000000     0.060600000000     0.456160000000     0          
N        N      0.296375000000     0.030180000000     0.617700000000     0          
N        N      0.269800000000     0.061700000000     0.594500000000     0          
N        N      0.407670000000     0.085930000000     0.937590000000     0          
N        N      0.278450000000     0.388480000000     0.897940000000     0          
N        N      0.240670000000     0.420940000000     0.921980000000     0          
N        N      0.292960000000     0.411770000000     0.796390000000     0          
N        N      0.151985000000     0.429600000000     0.002660000000     0          
N        N      0.159990000000     0.439400000000     0.043840000000     0          
N        N      0.370315000000     0.469820000000     0.882300000000     0          
N        N      0.347900000000     0.438300000000     0.905500000000     0          
N        N      0.169430000000     0.414070000000     0.562410000000     0          
N        N      0.472690000000     0.397940000000     0.611520000000     0          
N        N      0.451140000000     0.421980000000     0.579060000000     0          
N        N      0.498845000000     0.296390000000     0.588230000000     0          
N        N      0.366785000000     0.502660000000     0.570400000000     0          
N        N      0.379690000000     0.543840000000     0.560600000000     0          
N        N      0.105225000000     0.382300000000     0.530180000000     0          
N        N      0.067050000000     0.405500000000     0.561700000000     0          
N        N      0.376465000000     0.062410000000     0.585930000000     0          
N        N      0.227420000000     0.102060000000     0.888480000000     0          
N        N      0.201660000000     0.078020000000     0.920940000000     0          
N        N      0.191155000000     0.203610000000     0.911770000000     0          
N        N      0.153315000000     0.997340000000     0.929600000000     0          
N        N      0.181910000000     0.956160000000     0.939400000000     0          
N        N      0.311465000000     0.117700000000     0.969820000000     0          
N        N      0.300650000000     0.094500000000     0.938300000000     0          
N        N      0.450635000000     0.437590000000     0.914070000000     0          
O        O      0.291790000000     0.859070000000     0.343110000000    -1.025      
O        O      0.373330000000     0.833590000000     0.429890000000    -1.025      
O        O      0.302840000000     0.971330000000     0.376050000000    -1.025      
O        O      0.426665000000     0.891730000000     0.418970000000    -1.025      
O        O      0.406450000000     0.980100000000     0.530980000000    -1.025      
O        O      0.332500000000     0.880910000000     0.515670000000    -1.025      
O        O      0.132905000000     0.031230000000     0.371970000000    -1.025      
O        O      0.258570000000     0.951720000000     0.317940000000    -1.025      
O        O      0.172890000000     0.959640000000     0.466840000000    -1.025      
O        O      0.142880000000     0.640930000000     0.156890000000    -1.025      
O        O      0.255070000000     0.666410000000     0.070110000000    -1.025      
O        O      0.226530000000     0.528670000000     0.123950000000    -1.025      
O        O      0.332015000000     0.608270000000     0.081030000000    -1.025      
O        O      0.411990000000     0.519900000000     0.969020000000    -1.025      
O        O      0.280790000000     0.619090000000     0.984330000000    -1.025      
O        O      0.084505000000     0.468770000000     0.128030000000    -1.025      
O        O      0.143400000000     0.548280000000     0.182060000000    -1.025      
O        O      0.136130000000     0.540360000000     0.033160000000    -1.025      
O        O      0.463345000000     0.656890000000     0.359070000000    -1.025      
O        O      0.088275000000     0.570110000000     0.333590000000    -1.025      
O        O      0.490865000000     0.623950000000     0.471330000000    -1.025      
O        O      0.136150000000     0.581030000000     0.391730000000    -1.025      
O        O      0.171940000000     0.469020000000     0.480100000000    -1.025      
O        O      0.090335000000     0.484330000000     0.380910000000    -1.025      
O        O      0.318890000000     0.628030000000     0.531230000000    -1.025      
O        O      0.417540000000     0.682060000000     0.451720000000    -1.025      
O        O      0.406310000000     0.533160000000     0.459640000000    -1.025      
O        O      0.221325000000     0.843110000000     0.140930000000    -1.025      
O        O      0.290125000000     0.929890000000     0.166410000000    -1.025      
O        O      0.288505000000     0.876050000000     0.028670000000    -1.025      
O        O      0.372530000000     0.918970000000     0.108270000000    -1.025      
O        O      0.396500000000     0.030980000000     0.019900000000    -1.025      
O        O      0.272955000000     0.015670000000     0.119090000000    -1.025      
O        O      0.148520000000     0.871970000000     0.968770000000    -1.025      
O        O      0.234430000000     0.817940000000     0.048280000000    -1.025      
O        O      0.152710000000     0.966840000000     0.040360000000    -1.025      
O        O      0.208210000000     0.140930000000     0.656890000000    -1.025      
O        O      0.126670000000     0.166410000000     0.570110000000    -1.025      
O        O      0.197160000000     0.028670000000     0.623950000000    -1.025      
O        O      0.073335000000     0.108270000000     0.581030000000    -1.025      
O        O      0.093550000000     0.019900000000     0.469020000000    -1.025      
O        O      0.167500000000     0.119090000000     0.484330000000    -1.025      
O        O      0.367095000000     0.968770000000     0.628030000000    -1.025      
O        O      0.241430000000     0.048280000000     0.682060000000    -1.025      
O        O      0.327110000000     0.040360000000     0.533160000000    -1.025      
O        O      0.357120000000     0.359070000000     0.843110000000    -1.025      
O        O      0.244930000000     0.333590000000     0.929890000000    -1.025      
O        O      0.273470000000     0.471330000000     0.876050000000    -1.025      
O        O      0.167985000000     0.391730000000     0.918970000000    -1.025      
O        O      0.088010000000     0.480100000000     0.030980000000    -1.025      
O        O      0.219210000000     0.380910000000     0.015670000000    -1.025      
O        O      0.415495000000     0.531230000000     0.871970000000    -1.025      
O        O      0.356600000000     0.451720000000     0.817940000000    -1.025      
O        O      0.363870000000     0.459640000000     0.966840000000    -1.025      
O        O      0.036655000000     0.343110000000     0.640930000000    -1.025      
O        O      0.411725000000     0.429890000000     0.666410000000    -1.025      
O        O      0.009135000000     0.376050000000     0.528670000000    -1.025      
O        O      0.363850000000     0.418970000000     0.608270000000    -1.025      
O        O      0.328060000000     0.530980000000     0.519900000000    -1.025      
O        O      0.409665000000     0.515670000000     0.619090000000    -1.025      
O        O      0.181110000000     0.371970000000     0.468770000000    -1.025      
O        O      0.082460000000     0.317940000000     0.548280000000    -1.025      
O        O      0.093690000000     0.466840000000     0.540360000000    -1.025      
O        O      0.278675000000     0.156890000000     0.859070000000    -1.025      
O        O      0.209875000000     0.070110000000     0.833590000000    -1.025      
O        O      0.211495000000     0.123950000000     0.971330000000    -1.025      
O        O      0.127470000000     0.081030000000     0.891730000000    -1.025      
O        O      0.103500000000     0.969020000000     0.980100000000    -1.025      
O        O      0.227045000000     0.984330000000     0.880910000000    -1.025      
O        O      0.351480000000     0.128030000000     0.031230000000    -1.025      
O        O      0.265570000000     0.182060000000     0.951720000000    -1.025      
O        O      0.347290000000     0.033160000000     0.959640000000    -1.025      
Mn       Mn     0.794400000000     0.916470000000     0.356660000000     0          
Mn       Mn     0.880365000000     0.882260000000     0.464060000000     0          
Mn       Mn     0.648230000000     0.998110000000     0.422010000000     0          
Mn       Mn     0.680970000000     0.583530000000     0.143340000000     0          
Mn       Mn     0.803525000000     0.617740000000     0.035940000000     0          
Mn       Mn     0.608290000000     0.501890000000     0.077990000000     0          
Mn       Mn     0.972735000000     0.643340000000     0.416460000000     0          
Mn       Mn     0.612395000000     0.535940000000     0.382260000000     0          
Mn       Mn     0.859235000000     0.577990000000     0.498110000000     0          
Mn       Mn     0.752635000000     0.856660000000     0.083540000000     0          
Mn       Mn     0.821495000000     0.964060000000     0.117740000000     0          
Mn       Mn     0.647285000000     0.922010000000     0.001890000000     0          
Mn       Mn     0.705600000000     0.083530000000     0.643340000000     0          
Mn       Mn     0.619635000000     0.117740000000     0.535940000000     0          
Mn       Mn     0.851770000000     0.001890000000     0.577990000000     0          
Mn       Mn     0.819030000000     0.416470000000     0.856660000000     0          
Mn       Mn     0.696475000000     0.382260000000     0.964060000000     0          
Mn       Mn     0.891710000000     0.498110000000     0.922010000000     0          
Mn       Mn     0.527265000000     0.356660000000     0.583540000000     0          
Mn       Mn     0.887605000000     0.464060000000     0.617740000000     0          
Mn       Mn     0.640765000000     0.422010000000     0.501890000000     0          
Mn       Mn     0.747365000000     0.143340000000     0.916460000000     0          
Mn       Mn     0.678505000000     0.035940000000     0.882260000000     0          
Mn       Mn     0.852715000000     0.077990000000     0.998110000000     0          
H        H      0.794600000000     0.784900000000     0.309900000000     0          
H        H      0.834000000000     0.711100000000     0.317500000000     0          
H        H      0.879750000000     0.696600000000     0.363200000000     0          
H        H      0.884000000000     0.756900000000     0.401100000000     0          
H        H      0.806750000000     0.027900000000     0.433500000000     0          
H        H      0.841350000000     0.993100000000     0.452700000000     0          
H        H      0.859000000000     0.024600000000     0.359000000000     0          
H        H      0.892700000000     0.996100000000     0.383300000000     0          
H        H      0.855100000000     0.068200000000     0.436400000000     0          
H        H      0.855550000000     0.089500000000     0.387300000000     0          
H        H      0.914850000000     0.044200000000     0.418200000000     0          
H        H      0.917350000000     0.059900000000     0.367300000000     0          
H        H      0.884000000000     0.141900000000     0.407300000000     0          
H        H      0.909500000000     0.116700000000     0.441700000000     0          
H        H      0.932550000000     0.121800000000     0.389400000000     0          
H        H      0.889200000000     0.914600000000     0.334200000000     0          
H        H      0.947500000000     0.915200000000     0.275600000000     0          
H        H      0.886600000000     0.903700000000     0.185100000000     0          
H        H      0.828450000000     0.906900000000     0.246100000000     0          
H        H      0.954000000000     0.937600000000     0.163400000000     0          
H        H      0.966400000000     0.883600000000     0.161600000000     0          
H        H      0.986700000000     0.901900000000     0.353900000000     0          
H        H      0.533300000000     0.942100000000     0.352700000000     0          
H        H      0.527300000000     0.985900000000     0.416300000000     0          
H        H      0.970850000000     0.989100000000     0.480500000000     0          
H        H      0.761300000000     0.925800000000     0.575000000000     0          
H        H      0.782750000000     0.943100000000     0.606500000000     0          
H        H      0.759900000000     0.877900000000     0.638300000000     0          
H        H      0.790500000000     0.848700000000     0.595100000000     0          
H        H      0.847800000000     0.855300000000     0.616300000000     0          
H        H      0.818400000000     0.887800000000     0.657600000000     0          
H        H      0.822800000000     0.792800000000     0.653000000000     0          
H        H      0.792900000000     0.825300000000     0.694100000000     0          
H        H      0.880800000000     0.801900000000     0.672900000000     0          
H        H      0.850400000000     0.833100000000     0.714900000000     0          
H        H      0.852750000000     0.780500000000     0.714300000000     0          
H        H      0.604500000000     0.072000000000     0.308600000000     0          
H        H      0.634750000000     0.069200000000     0.229800000000     0          
H        H      0.702650000000     0.023800000000     0.199200000000     0          
H        H      0.739250000000     0.982500000000     0.248700000000     0          
H        H      0.728000000000     0.916600000000     0.508400000000     0          
H        H      0.761050000000     0.889800000000     0.465000000000     0          
H        H      0.723000000000     0.842000000000     0.515600000000     0          
H        H      0.682550000000     0.872300000000     0.503500000000     0          
H        H      0.752400000000     0.818500000000     0.437900000000     0          
H        H      0.711800000000     0.848500000000     0.426100000000     0          
H        H      0.714450000000     0.769700000000     0.484100000000     0          
H        H      0.674300000000     0.799300000000     0.471100000000     0          
H        H      0.713200000000     0.776800000000     0.391600000000     0          
H        H      0.696900000000     0.738700000000     0.423700000000     0          
H        H      0.743650000000     0.738600000000     0.413200000000     0          
H        H      0.568650000000     0.980600000000     0.071200000000     0          
H        H      0.516900000000     0.978900000000     0.137500000000     0          
H        H      0.556200000000     0.842000000000     0.133600000000     0          
H        H      0.607000000000     0.846400000000     0.067200000000     0          
H        H      0.507800000000     0.879500000000     0.206500000000     0          
H        H      0.994900000000     0.933800000000     0.209400000000     0          
H        H      0.592000000000     0.715100000000     0.190100000000     0          
H        H      0.598300000000     0.788900000000     0.182500000000     0          
H        H      0.659650000000     0.803400000000     0.136800000000     0          
H        H      0.713000000000     0.743100000000     0.098900000000     0          
H        H      0.787450000000     0.472100000000     0.066500000000     0          
H        H      0.814250000000     0.506900000000     0.047300000000     0          
H        H      0.800800000000     0.475400000000     0.141000000000     0          
H        H      0.832400000000     0.503900000000     0.116700000000     0          
H        H      0.857400000000     0.431800000000     0.063600000000     0          
H        H      0.843950000000     0.410500000000     0.112700000000     0          
H        H      0.896050000000     0.455800000000     0.081800000000     0          
H        H      0.880950000000     0.440100000000     0.132700000000     0          
H        H      0.908600000000     0.358100000000     0.092700000000     0          
H        H      0.938700000000     0.383300000000     0.058300000000     0          
H        H      0.938150000000     0.378200000000     0.110600000000     0          
H        H      0.763600000000     0.585400000000     0.165800000000     0          
H        H      0.792900000000     0.584800000000     0.224400000000     0          
H        H      0.681000000000     0.596300000000     0.314900000000     0          
H        H      0.654950000000     0.593100000000     0.253900000000     0          
H        H      0.754500000000     0.562400000000     0.336600000000     0          
H        H      0.739000000000     0.616400000000     0.338400000000     0          
H        H      0.864600000000     0.598100000000     0.146100000000     0          
H        H      0.930700000000     0.557900000000     0.147300000000     0          
H        H      0.978400000000     0.514100000000     0.083700000000     0          
H        H      0.955650000000     0.510900000000     0.019500000000     0          
H        H      0.761700000000     0.574200000000     0.925000000000     0          
H        H      0.807550000000     0.556900000000     0.893500000000     0          
H        H      0.768000000000     0.622100000000     0.861700000000     0          
H        H      0.762400000000     0.651300000000     0.904900000000     0          
H        H      0.833600000000     0.644700000000     0.883700000000     0          
H        H      0.841100000000     0.612200000000     0.842400000000     0          
H        H      0.795700000000     0.707200000000     0.847000000000     0          
H        H      0.802600000000     0.674700000000     0.805900000000     0          
H        H      0.868200000000     0.698100000000     0.827100000000     0          
H        H      0.874400000000     0.666900000000     0.785100000000     0          
H        H      0.850150000000     0.719500000000     0.785700000000     0          
H        H      0.544800000000     0.428000000000     0.191400000000     0          
H        H      0.534250000000     0.430800000000     0.270200000000     0          
H        H      0.564150000000     0.476200000000     0.300800000000     0          
H        H      0.604850000000     0.517500000000     0.251300000000     0          
H        H      0.690500000000     0.583400000000     0.991600000000     0          
H        H      0.688450000000     0.610200000000     0.035000000000     0          
H        H      0.651800000000     0.658000000000     0.984400000000     0          
H        H      0.620450000000     0.627700000000     0.996500000000     0          
H        H      0.630600000000     0.681500000000     0.062100000000     0          
H        H      0.599100000000     0.651500000000     0.073900000000     0          
H        H      0.591350000000     0.730300000000     0.015900000000     0          
H        H      0.559500000000     0.700700000000     0.028900000000     0          
H        H      0.547400000000     0.723200000000     0.108400000000     0          
H        H      0.528100000000     0.761300000000     0.076300000000     0          
H        H      0.569550000000     0.761400000000     0.086800000000     0          
H        H      0.844550000000     0.519400000000     0.428800000000     0          
H        H      0.825100000000     0.521100000000     0.362500000000     0          
H        H      0.794000000000     0.658000000000     0.366400000000     0          
H        H      0.813800000000     0.653600000000     0.432800000000     0          
H        H      0.800800000000     0.620500000000     0.293500000000     0          
H        H      0.816500000000     0.566200000000     0.290600000000     0          
H        H      0.949550000000     0.690100000000     0.284900000000     0          
H        H      0.992750000000     0.682500000000     0.211100000000     0          
H        H      0.561350000000     0.636800000000     0.196600000000     0          
H        H      0.584550000000     0.598900000000     0.256900000000     0          
H        H      0.523500000000     0.566500000000     0.527900000000     0          
H        H      0.567700000000     0.547300000000     0.493100000000     0          
H        H      0.538500000000     0.641000000000     0.524600000000     0          
H        H      0.584350000000     0.616700000000     0.496100000000     0          
H        H      0.573300000000     0.563600000000     0.568200000000     0          
H        H      0.549200000000     0.612700000000     0.589500000000     0          
H        H      0.623950000000     0.581800000000     0.544200000000     0          
H        H      0.601000000000     0.632700000000     0.559900000000     0          
H        H      0.587650000000     0.592700000000     0.641900000000     0          
H        H      0.630350000000     0.558300000000     0.616700000000     0          
H        H      0.627250000000     0.610600000000     0.621800000000     0          
H        H      0.556300000000     0.665800000000     0.414600000000     0          
H        H      0.585300000000     0.724400000000     0.415200000000     0          
H        H      0.979150000000     0.814900000000     0.403700000000     0          
H        H      0.951500000000     0.753900000000     0.406900000000     0          
H        H      0.535700000000     0.836600000000     0.437600000000     0          
H        H      0.547200000000     0.838400000000     0.383600000000     0          
H        H      0.663650000000     0.646100000000     0.401900000000     0          
H        H      0.709650000000     0.647300000000     0.442100000000     0          
H        H      0.735450000000     0.583700000000     0.485900000000     0          
H        H      0.711100000000     0.519500000000     0.489100000000     0          
H        H      0.548800000000     0.425000000000     0.425800000000     0          
H        H      0.586000000000     0.393500000000     0.443100000000     0          
H        H      0.579050000000     0.361700000000     0.377900000000     0          
H        H      0.588050000000     0.404900000000     0.348700000000     0          
H        H      0.655950000000     0.383700000000     0.355300000000     0          
H        H      0.647200000000     0.342400000000     0.387800000000     0          
H        H      0.649300000000     0.347000000000     0.292800000000     0          
H        H      0.639950000000     0.305900000000     0.325300000000     0          
H        H      0.717250000000     0.327100000000     0.301900000000     0          
H        H      0.707850000000     0.285100000000     0.333100000000     0          
H        H      0.709900000000     0.285700000000     0.280500000000     0          
H        H      0.758800000000     0.691400000000     0.572000000000     0          
H        H      0.749650000000     0.770200000000     0.569200000000     0          
H        H      0.802250000000     0.800800000000     0.523800000000     0          
H        H      0.863600000000     0.751300000000     0.482500000000     0          
H        H      0.982200000000     0.491600000000     0.416600000000     0          
H        H      0.993550000000     0.535000000000     0.389800000000     0          
H        H      0.980800000000     0.484400000000     0.342000000000     0          
H        H      0.934300000000     0.496500000000     0.372300000000     0          
H        H      0.971350000000     0.562100000000     0.318500000000     0          
H        H      0.924850000000     0.573900000000     0.348500000000     0          
H        H      0.956500000000     0.515900000000     0.269700000000     0          
H        H      0.909850000000     0.528900000000     0.299300000000     0          
H        H      0.909000000000     0.608400000000     0.276800000000     0          
H        H      0.908750000000     0.576300000000     0.238700000000     0          
H        H      0.950250000000     0.586800000000     0.238600000000     0          
H        H      0.604250000000     0.928800000000     0.480600000000     0          
H        H      0.585650000000     0.862500000000     0.478900000000     0          
H        H      0.623000000000     0.866400000000     0.342000000000     0          
H        H      0.640600000000     0.932800000000     0.346400000000     0          
H        H      0.611050000000     0.793500000000     0.379500000000     0          
H        H      0.599600000000     0.790600000000     0.433800000000     0          
H        H      0.687050000000     0.809900000000     0.215100000000     0          
H        H      0.689550000000     0.817500000000     0.288900000000     0          
H        H      0.728050000000     0.863200000000     0.303400000000     0          
H        H      0.762450000000     0.901100000000     0.243100000000     0          
H        H      0.820700000000     0.933500000000     0.972100000000     0          
H        H      0.837900000000     0.952700000000     0.006900000000     0          
H        H      0.871300000000     0.859000000000     0.975400000000     0          
H        H      0.890750000000     0.883300000000     0.003900000000     0          
H        H      0.889200000000     0.936400000000     0.931800000000     0          
H        H      0.900300000000     0.887300000000     0.910500000000     0          
H        H      0.936950000000     0.918200000000     0.955800000000     0          
H        H      0.947300000000     0.867300000000     0.940100000000     0          
H        H      0.954950000000     0.907300000000     0.858100000000     0          
H        H      0.967850000000     0.941700000000     0.883300000000     0          
H        H      0.993450000000     0.889400000000     0.878200000000     0          
H        H      0.846500000000     0.834200000000     0.085400000000     0          
H        H      0.905100000000     0.775600000000     0.084800000000     0          
H        H      0.838450000000     0.685100000000     0.096300000000     0          
H        H      0.781900000000     0.746100000000     0.093100000000     0          
H        H      0.922800000000     0.663400000000     0.062400000000     0          
H        H      0.908200000000     0.661600000000     0.116400000000     0          
H        H      0.937650000000     0.853900000000     0.098100000000     0          
H        H      0.504350000000     0.852700000000     0.057900000000     0          
H        H      0.520250000000     0.916300000000     0.014100000000     0          
H        H      0.965400000000     0.980500000000     0.010900000000     0          
H        H      0.724200000000     0.075000000000     0.074200000000     0          
H        H      0.754300000000     0.106500000000     0.056900000000     0          
H        H      0.698850000000     0.138300000000     0.122100000000     0          
H        H      0.714850000000     0.095100000000     0.151300000000     0          
H        H      0.775450000000     0.116300000000     0.144700000000     0          
H        H      0.762300000000     0.157600000000     0.112200000000     0          
H        H      0.719200000000     0.153000000000     0.207200000000     0          
H        H      0.705550000000     0.194100000000     0.174700000000     0          
H        H      0.781750000000     0.172900000000     0.198100000000     0          
H        H      0.766950000000     0.214900000000     0.166900000000     0          
H        H      0.743000000000     0.214300000000     0.219500000000     0          
H        H      0.640500000000     0.808600000000     0.928000000000     0          
H        H      0.669350000000     0.729800000000     0.930800000000     0          
H        H      0.714550000000     0.699200000000     0.976200000000     0          
H        H      0.730500000000     0.748700000000     0.017500000000     0          
H        H      0.686300000000     0.008400000000     0.083400000000     0          
H        H      0.705950000000     0.965000000000     0.110200000000     0          
H        H      0.644000000000     0.015600000000     0.158000000000     0          
H        H      0.618700000000     0.003500000000     0.127700000000     0          
H        H      0.661650000000     0.937900000000     0.181500000000     0          
H        H      0.636050000000     0.926100000000     0.151500000000     0          
H        H      0.599300000000     0.984100000000     0.230300000000     0          
H        H      0.573950000000     0.971100000000     0.200700000000     0          
H        H      0.601600000000     0.891600000000     0.223200000000     0          
H        H      0.566250000000     0.923700000000     0.261300000000     0          
H        H      0.612950000000     0.913200000000     0.261400000000     0          
H        H      0.558950000000     0.571200000000     0.019400000000     0          
H        H      0.506350000000     0.637500000000     0.021100000000     0          
H        H      0.977200000000     0.633600000000     0.158000000000     0          
H        H      0.530200000000     0.567200000000     0.153600000000     0          
H        H      0.947550000000     0.706500000000     0.120500000000     0          
H        H      0.961800000000     0.709400000000     0.066200000000     0          
H        H      0.705400000000     0.215100000000     0.690100000000     0          
H        H      0.666000000000     0.288900000000     0.682500000000     0          
H        H      0.620250000000     0.303400000000     0.636800000000     0          
H        H      0.616000000000     0.243100000000     0.598900000000     0          
H        H      0.693250000000     0.972100000000     0.566500000000     0          
H        H      0.658650000000     0.006900000000     0.547300000000     0          
H        H      0.641000000000     0.975400000000     0.641000000000     0          
H        H      0.607300000000     0.003900000000     0.616700000000     0          
H        H      0.644900000000     0.931800000000     0.563600000000     0          
H        H      0.644450000000     0.910500000000     0.612700000000     0          
H        H      0.585150000000     0.955800000000     0.581800000000     0          
H        H      0.582650000000     0.940100000000     0.632700000000     0          
H        H      0.616000000000     0.858100000000     0.592700000000     0          
H        H      0.590500000000     0.883300000000     0.558300000000     0          
H        H      0.567450000000     0.878200000000     0.610600000000     0          
H        H      0.610800000000     0.085400000000     0.665800000000     0          
H        H      0.552500000000     0.084800000000     0.724400000000     0          
H        H      0.613400000000     0.096300000000     0.814900000000     0          
H        H      0.671550000000     0.093100000000     0.753900000000     0          
H        H      0.546000000000     0.062400000000     0.836600000000     0          
H        H      0.533600000000     0.116400000000     0.838400000000     0          
H        H      0.513300000000     0.098100000000     0.646100000000     0          
H        H      0.966700000000     0.057900000000     0.647300000000     0          
H        H      0.972700000000     0.014100000000     0.583700000000     0          
H        H      0.529150000000     0.010900000000     0.519500000000     0          
H        H      0.738700000000     0.074200000000     0.425000000000     0          
H        H      0.717250000000     0.056900000000     0.393500000000     0          
H        H      0.740100000000     0.122100000000     0.361700000000     0          
H        H      0.709500000000     0.151300000000     0.404900000000     0          
H        H      0.652200000000     0.144700000000     0.383700000000     0          
H        H      0.681600000000     0.112200000000     0.342400000000     0          
H        H      0.677200000000     0.207200000000     0.347000000000     0          
H        H      0.707100000000     0.174700000000     0.305900000000     0          
H        H      0.619200000000     0.198100000000     0.327100000000     0          
H        H      0.649600000000     0.166900000000     0.285100000000     0          
H        H      0.647250000000     0.219500000000     0.285700000000     0          
H        H      0.895500000000     0.928000000000     0.691400000000     0          
H        H      0.865250000000     0.930800000000     0.770200000000     0          
H        H      0.797350000000     0.976200000000     0.800800000000     0          
H        H      0.760750000000     0.017500000000     0.751300000000     0          
H        H      0.772000000000     0.083400000000     0.491600000000     0          
H        H      0.738950000000     0.110200000000     0.535000000000     0          
H        H      0.777000000000     0.158000000000     0.484400000000     0          
H        H      0.817450000000     0.127700000000     0.496500000000     0          
H        H      0.747600000000     0.181500000000     0.562100000000     0          
H        H      0.788200000000     0.151500000000     0.573900000000     0          
H        H      0.785550000000     0.230300000000     0.515900000000     0          
H        H      0.825700000000     0.200700000000     0.528900000000     0          
H        H      0.786800000000     0.223200000000     0.608400000000     0          
H        H      0.803100000000     0.261300000000     0.576300000000     0          
H        H      0.756350000000     0.261400000000     0.586800000000     0          
H        H      0.931350000000     0.019400000000     0.928800000000     0          
H        H      0.983100000000     0.021100000000     0.862500000000     0          
H        H      0.943800000000     0.158000000000     0.866400000000     0          
H        H      0.893000000000     0.153600000000     0.932800000000     0          
H        H      0.992200000000     0.120500000000     0.793500000000     0          
H        H      0.505100000000     0.066200000000     0.790600000000     0          
H        H      0.908000000000     0.284900000000     0.809900000000     0          
H        H      0.901700000000     0.211100000000     0.817500000000     0          
H        H      0.840350000000     0.196600000000     0.863200000000     0          
H        H      0.787000000000     0.256900000000     0.901100000000     0          
H        H      0.712550000000     0.527900000000     0.933500000000     0          
H        H      0.685750000000     0.493100000000     0.952700000000     0          
H        H      0.699200000000     0.524600000000     0.859000000000     0          
H        H      0.667600000000     0.496100000000     0.883300000000     0          
H        H      0.642600000000     0.568200000000     0.936400000000     0          
H        H      0.656050000000     0.589500000000     0.887300000000     0          
H        H      0.603950000000     0.544200000000     0.918200000000     0          
H        H      0.619050000000     0.559900000000     0.867300000000     0          
H        H      0.591400000000     0.641900000000     0.907300000000     0          
H        H      0.561300000000     0.616700000000     0.941700000000     0          
H        H      0.561850000000     0.621800000000     0.889400000000     0          
H        H      0.736400000000     0.414600000000     0.834200000000     0          
H        H      0.707100000000     0.415200000000     0.775600000000     0          
H        H      0.819000000000     0.403700000000     0.685100000000     0          
H        H      0.845050000000     0.406900000000     0.746100000000     0          
H        H      0.745500000000     0.437600000000     0.663400000000     0          
H        H      0.761000000000     0.383600000000     0.661600000000     0          
H        H      0.635400000000     0.401900000000     0.853900000000     0          
H        H      0.569300000000     0.442100000000     0.852700000000     0          
H        H      0.521600000000     0.485900000000     0.916300000000     0          
H        H      0.544350000000     0.489100000000     0.980500000000     0          
H        H      0.738300000000     0.425800000000     0.075000000000     0          
H        H      0.692450000000     0.443100000000     0.106500000000     0          
H        H      0.732000000000     0.377900000000     0.138300000000     0          
H        H      0.737600000000     0.348700000000     0.095100000000     0          
H        H      0.666400000000     0.355300000000     0.116300000000     0          
H        H      0.658900000000     0.387800000000     0.157600000000     0          
H        H      0.704300000000     0.292800000000     0.153000000000     0          
H        H      0.697400000000     0.325300000000     0.194100000000     0          
H        H      0.631800000000     0.301900000000     0.172900000000     0          
H        H      0.625600000000     0.333100000000     0.214900000000     0          
H        H      0.649850000000     0.280500000000     0.214300000000     0          
H        H      0.955200000000     0.572000000000     0.808600000000     0          
H        H      0.965750000000     0.569200000000     0.729800000000     0          
H        H      0.935850000000     0.523800000000     0.699200000000     0          
H        H      0.895150000000     0.482500000000     0.748700000000     0          
H        H      0.809500000000     0.416600000000     0.008400000000     0          
H        H      0.811550000000     0.389800000000     0.965000000000     0          
H        H      0.848200000000     0.342000000000     0.015600000000     0          
H        H      0.879550000000     0.372300000000     0.003500000000     0          
H        H      0.869400000000     0.318500000000     0.937900000000     0          
H        H      0.900900000000     0.348500000000     0.926100000000     0          
H        H      0.908650000000     0.269700000000     0.984100000000     0          
H        H      0.940500000000     0.299300000000     0.971100000000     0          
H        H      0.952600000000     0.276800000000     0.891600000000     0          
H        H      0.971900000000     0.238700000000     0.923700000000     0          
H        H      0.930450000000     0.238600000000     0.913200000000     0          
H        H      0.655450000000     0.480600000000     0.571200000000     0          
H        H      0.674900000000     0.478900000000     0.637500000000     0          
H        H      0.706000000000     0.342000000000     0.633600000000     0          
H        H      0.686200000000     0.346400000000     0.567200000000     0          
H        H      0.699200000000     0.379500000000     0.706500000000     0          
H        H      0.683500000000     0.433800000000     0.709400000000     0          
H        H      0.550450000000     0.309900000000     0.715100000000     0          
H        H      0.507250000000     0.317500000000     0.788900000000     0          
H        H      0.938650000000     0.363200000000     0.803400000000     0          
H        H      0.915450000000     0.401100000000     0.743100000000     0          
H        H      0.976500000000     0.433500000000     0.472100000000     0          
H        H      0.932300000000     0.452700000000     0.506900000000     0          
H        H      0.961500000000     0.359000000000     0.475400000000     0          
H        H      0.915650000000     0.383300000000     0.503900000000     0          
H        H      0.926700000000     0.436400000000     0.431800000000     0          
H        H      0.950800000000     0.387300000000     0.410500000000     0          
H        H      0.876050000000     0.418200000000     0.455800000000     0          
H        H      0.899000000000     0.367300000000     0.440100000000     0          
H        H      0.912350000000     0.407300000000     0.358100000000     0          
H        H      0.869650000000     0.441700000000     0.383300000000     0          
H        H      0.872750000000     0.389400000000     0.378200000000     0          
H        H      0.943700000000     0.334200000000     0.585400000000     0          
H        H      0.914700000000     0.275600000000     0.584800000000     0          
H        H      0.520850000000     0.185100000000     0.596300000000     0          
H        H      0.548500000000     0.246100000000     0.593100000000     0          
H        H      0.964300000000     0.163400000000     0.562400000000     0          
H        H      0.952800000000     0.161600000000     0.616400000000     0          
H        H      0.836350000000     0.353900000000     0.598100000000     0          
H        H      0.790350000000     0.352700000000     0.557900000000     0          
H        H      0.764550000000     0.416300000000     0.514100000000     0          
H        H      0.788900000000     0.480500000000     0.510900000000     0          
H        H      0.951200000000     0.575000000000     0.574200000000     0          
H        H      0.914000000000     0.606500000000     0.556900000000     0          
H        H      0.920950000000     0.638300000000     0.622100000000     0          
H        H      0.911950000000     0.595100000000     0.651300000000     0          
H        H      0.844050000000     0.616300000000     0.644700000000     0          
H        H      0.852800000000     0.657600000000     0.612200000000     0          
H        H      0.850700000000     0.653000000000     0.707200000000     0          
H        H      0.860050000000     0.694100000000     0.674700000000     0          
H        H      0.782750000000     0.672900000000     0.698100000000     0          
H        H      0.792150000000     0.714900000000     0.666900000000     0          
H        H      0.790100000000     0.714300000000     0.719500000000     0          
H        H      0.741200000000     0.308600000000     0.428000000000     0          
H        H      0.750350000000     0.229800000000     0.430800000000     0          
H        H      0.697750000000     0.199200000000     0.476200000000     0          
H        H      0.636400000000     0.248700000000     0.517500000000     0          
H        H      0.517800000000     0.508400000000     0.583400000000     0          
H        H      0.506450000000     0.465000000000     0.610200000000     0          
H        H      0.519200000000     0.515600000000     0.658000000000     0          
H        H      0.565700000000     0.503500000000     0.627700000000     0          
H        H      0.528650000000     0.437900000000     0.681500000000     0          
H        H      0.575150000000     0.426100000000     0.651500000000     0          
H        H      0.543500000000     0.484100000000     0.730300000000     0          
H        H      0.590150000000     0.471100000000     0.700700000000     0          
H        H      0.591000000000     0.391600000000     0.723200000000     0          
H        H      0.591250000000     0.423700000000     0.761300000000     0          
H        H      0.549750000000     0.413200000000     0.761400000000     0          
H        H      0.895750000000     0.071200000000     0.519400000000     0          
H        H      0.914350000000     0.137500000000     0.521100000000     0          
H        H      0.877000000000     0.133600000000     0.658000000000     0          
H        H      0.859400000000     0.067200000000     0.653600000000     0          
H        H      0.888950000000     0.206500000000     0.620500000000     0          
H        H      0.900400000000     0.209400000000     0.566200000000     0          
H        H      0.812950000000     0.190100000000     0.784900000000     0          
H        H      0.810450000000     0.182500000000     0.711100000000     0          
H        H      0.771950000000     0.136800000000     0.696600000000     0          
H        H      0.737550000000     0.098900000000     0.756900000000     0          
H        H      0.679300000000     0.066500000000     0.027900000000     0          
H        H      0.662100000000     0.047300000000     0.993100000000     0          
H        H      0.628700000000     0.141000000000     0.024600000000     0          
H        H      0.609250000000     0.116700000000     0.996100000000     0          
H        H      0.610800000000     0.063600000000     0.068200000000     0          
H        H      0.599700000000     0.112700000000     0.089500000000     0          
H        H      0.563050000000     0.081800000000     0.044200000000     0          
H        H      0.552700000000     0.132700000000     0.059900000000     0          
H        H      0.545050000000     0.092700000000     0.141900000000     0          
H        H      0.532150000000     0.058300000000     0.116700000000     0          
H        H      0.506550000000     0.110600000000     0.121800000000     0          
H        H      0.653500000000     0.165800000000     0.914600000000     0          
H        H      0.594900000000     0.224400000000     0.915200000000     0          
H        H      0.661550000000     0.314900000000     0.903700000000     0          
H        H      0.718100000000     0.253900000000     0.906900000000     0          
H        H      0.577200000000     0.336600000000     0.937600000000     0          
H        H      0.591800000000     0.338400000000     0.883600000000     0          
H        H      0.562350000000     0.146100000000     0.901900000000     0          
H        H      0.995650000000     0.147300000000     0.942100000000     0          
H        H      0.979750000000     0.083700000000     0.985900000000     0          
H        H      0.534600000000     0.019500000000     0.989100000000     0          
H        H      0.775800000000     0.925000000000     0.925800000000     0          
H        H      0.745700000000     0.893500000000     0.943100000000     0          
H        H      0.801150000000     0.861700000000     0.877900000000     0          
H        H      0.785150000000     0.904900000000     0.848700000000     0          
H        H      0.724550000000     0.883700000000     0.855300000000     0          
H        H      0.737700000000     0.842400000000     0.887800000000     0          
H        H      0.780800000000     0.847000000000     0.792800000000     0          
H        H      0.794450000000     0.805900000000     0.825300000000     0          
H        H      0.718250000000     0.827100000000     0.801900000000     0          
H        H      0.733050000000     0.785100000000     0.833100000000     0          
H        H      0.757000000000     0.785700000000     0.780500000000     0          
H        H      0.859500000000     0.191400000000     0.072000000000     0          
H        H      0.830650000000     0.270200000000     0.069200000000     0          
H        H      0.785450000000     0.300800000000     0.023800000000     0          
H        H      0.769500000000     0.251300000000     0.982500000000     0          
H        H      0.813700000000     0.991600000000     0.916600000000     0          
H        H      0.794050000000     0.035000000000     0.889800000000     0          
H        H      0.856000000000     0.984400000000     0.842000000000     0          
H        H      0.881300000000     0.996500000000     0.872300000000     0          
H        H      0.838350000000     0.062100000000     0.818500000000     0          
H        H      0.863950000000     0.073900000000     0.848500000000     0          
H        H      0.900700000000     0.015900000000     0.769700000000     0          
H        H      0.926050000000     0.028900000000     0.799300000000     0          
H        H      0.898400000000     0.108400000000     0.776800000000     0          
H        H      0.933750000000     0.076300000000     0.738700000000     0          
H        H      0.887050000000     0.086800000000     0.738600000000     0          
H        H      0.941050000000     0.428800000000     0.980600000000     0          
H        H      0.993650000000     0.362500000000     0.978900000000     0          
H        H      0.522800000000     0.366400000000     0.842000000000     0          
H        H      0.969800000000     0.432800000000     0.846400000000     0          
H        H      0.552450000000     0.293500000000     0.879500000000     0          
H        H      0.538200000000     0.290600000000     0.933800000000     0          
C        C      0.815555000000     0.816770000000     0.350410000000     0          
C        C      0.812850000000     0.779550000000     0.328250000000     0          
C        C      0.836325000000     0.735320000000     0.332780000000     0          
C        C      0.863540000000     0.726530000000     0.360110000000     0          
C        C      0.866120000000     0.762780000000     0.382340000000     0          
C        C      0.843265000000     0.807930000000     0.378010000000     0          
C        C      0.848835000000     0.844610000000     0.403450000000     0          
C        C      0.823050000000     0.962850000000     0.407550000000     0          
C        C      0.832070000000     0.002630000000     0.425090000000     0          
C        C      0.866180000000     0.019550000000     0.388130000000     0          
C        C      0.869950000000     0.064100000000     0.403700000000     0          
C        C      0.901700000000     0.067600000000     0.399200000000     0          
C        C      0.907500000000     0.117200000000     0.410600000000     0          
C        C      0.888430000000     0.913310000000     0.303770000000     0          
C        C      0.923650000000     0.913100000000     0.268900000000     0          
C        C      0.923570000000     0.909600000000     0.222720000000     0          
C        C      0.887625000000     0.906720000000     0.215180000000     0          
C        C      0.852825000000     0.908300000000     0.252000000000     0          
C        C      0.961400000000     0.909800000000     0.181200000000     0          
C        C      0.950835000000     0.918260000000     0.419600000000     0          
C        C      0.983635000000     0.918480000000     0.379980000000     0          
C        C      0.511420000000     0.943110000000     0.379210000000     0          
C        C      0.507980000000     0.969860000000     0.417020000000     0          
C        C      0.974420000000     0.971020000000     0.455300000000     0          
C        C      0.945410000000     0.946250000000     0.457910000000     0          
C        C      0.909960000000     0.952130000000     0.499030000000     0          
C        C      0.824425000000     0.912870000000     0.546630000000     0          
C        C      0.785520000000     0.917940000000     0.586780000000     0          
C        C      0.786580000000     0.874050000000     0.615230000000     0          
C        C      0.821005000000     0.861550000000     0.639430000000     0          
C        C      0.819740000000     0.819260000000     0.671180000000     0          
C        C      0.854100000000     0.807620000000     0.695580000000     0          
C        C      0.653570000000     0.027880000000     0.327240000000     0          
C        C      0.631585000000     0.053670000000     0.296790000000     0          
C        C      0.649820000000     0.052120000000     0.249400000000     0          
C        C      0.690405000000     0.025190000000     0.230990000000     0          
C        C      0.712045000000     0.000540000000     0.260880000000     0          
C        C      0.694620000000     0.001540000000     0.309180000000     0          
C        C      0.720505000000     0.973100000000     0.337680000000     0          
C        C      0.710940000000     0.935210000000     0.448630000000     0          
C        C      0.731455000000     0.901190000000     0.479990000000     0          
C        C      0.712540000000     0.860530000000     0.491510000000     0          
C        C      0.722355000000     0.829760000000     0.450020000000     0          
C        C      0.704400000000     0.788180000000     0.459820000000     0          
C        C      0.715550000000     0.757900000000     0.418300000000     0          
C        C      0.566095000000     0.952140000000     0.083880000000     0          
C        C      0.535325000000     0.951340000000     0.124160000000     0          
C        C      0.531685000000     0.909490000000     0.144970000000     0          
C        C      0.558415000000     0.870860000000     0.121880000000     0          
C        C      0.588610000000     0.873640000000     0.081520000000     0          
C        C      0.998750000000     0.907900000000     0.190100000000     0          
C        C      0.649145000000     0.683230000000     0.149590000000     0          
C        C      0.616750000000     0.720450000000     0.171750000000     0          
C        C      0.620375000000     0.764680000000     0.167220000000     0          
C        C      0.656860000000     0.773470000000     0.139890000000     0          
C        C      0.688680000000     0.737220000000     0.117660000000     0          
C        C      0.686235000000     0.692070000000     0.121990000000     0          
C        C      0.722865000000     0.655390000000     0.096550000000     0          
C        C      0.758250000000     0.537150000000     0.092450000000     0          
C        C      0.795930000000     0.497370000000     0.074910000000     0          
C        C      0.820020000000     0.480450000000     0.111870000000     0          
C        C      0.853850000000     0.435900000000     0.096300000000     0          
C        C      0.885100000000     0.432400000000     0.100800000000     0          
C        C      0.921400000000     0.382800000000     0.089400000000     0          
C        C      0.746970000000     0.586690000000     0.196230000000     0          
C        C      0.764650000000     0.586900000000     0.231100000000     0          
C        C      0.739730000000     0.590400000000     0.277280000000     0          
C        C      0.698575000000     0.593280000000     0.284820000000     0          
C        C      0.682975000000     0.591700000000     0.248000000000     0          
C        C      0.756900000000     0.590200000000     0.318800000000     0          
C        C      0.869765000000     0.581740000000     0.080400000000     0          
C        C      0.882865000000     0.581520000000     0.120020000000     0          
C        C      0.922580000000     0.556890000000     0.120790000000     0          
C        C      0.951420000000     0.530140000000     0.082980000000     0          
C        C      0.937580000000     0.528980000000     0.044700000000     0          
C        C      0.897490000000     0.553750000000     0.042090000000     0          
C        C      0.885540000000     0.547870000000     0.000970000000     0          
C        C      0.804175000000     0.587130000000     0.953370000000     0          
C        C      0.787880000000     0.582060000000     0.913220000000     0          
C        C      0.781220000000     0.625950000000     0.884770000000     0          
C        C      0.821495000000     0.638450000000     0.860570000000     0          
C        C      0.814960000000     0.680740000000     0.828820000000     0          
C        C      0.855700000000     0.692380000000     0.804420000000     0          
C        C      0.581130000000     0.472120000000     0.172760000000     0          
C        C      0.556815000000     0.446330000000     0.203210000000     0          
C        C      0.550580000000     0.447880000000     0.250600000000     0          
C        C      0.568495000000     0.474810000000     0.269010000000     0          
C        C      0.592755000000     0.499460000000     0.239120000000     0          
C        C      0.599980000000     0.498460000000     0.190820000000     0          
C        C      0.625895000000     0.526900000000     0.162320000000     0          
C        C      0.652860000000     0.564790000000     0.051370000000     0          
C        C      0.672045000000     0.598810000000     0.020010000000     0          
C        C      0.638560000000     0.639470000000     0.008490000000     0          
C        C      0.612245000000     0.670240000000     0.049980000000     0          
C        C      0.578400000000     0.711820000000     0.040180000000     0          
C        C      0.553650000000     0.742100000000     0.081700000000     0          
C        C      0.834105000000     0.547860000000     0.416120000000     0          
C        C      0.823075000000     0.548660000000     0.375840000000     0          
C        C      0.808915000000     0.590510000000     0.355030000000     0          
C        C      0.804785000000     0.629140000000     0.378120000000     0          
C        C      0.816190000000     0.626360000000     0.418480000000     0          
C        C      0.797750000000     0.592100000000     0.309900000000     0          
C        C      0.990760000000     0.649590000000     0.316770000000     0          
C        C      0.976975000000     0.671750000000     0.279550000000     0          
C        C      0.502715000000     0.667220000000     0.235320000000     0          
C        C      0.543595000000     0.639890000000     0.226530000000     0          
C        C      0.557290000000     0.617660000000     0.262780000000     0          
C        C      0.532270000000     0.621990000000     0.307930000000     0          
C        C      0.550560000000     0.596550000000     0.344610000000     0          
C        C      0.526825000000     0.592450000000     0.462850000000     0          
C        C      0.544615000000     0.574910000000     0.502630000000     0          
C        C      0.560245000000     0.611870000000     0.519550000000     0          
C        C      0.571800000000     0.596300000000     0.564100000000     0          
C        C      0.601300000000     0.600800000000     0.567600000000     0          
C        C      0.612800000000     0.589400000000     0.617200000000     0          
C        C      0.540315000000     0.696230000000     0.413310000000     0          
C        C      0.558100000000     0.731100000000     0.413100000000     0          
C        C      0.534930000000     0.777280000000     0.409600000000     0          
C        C      0.995215000000     0.784820000000     0.406720000000     0          
C        C      0.978825000000     0.748000000000     0.408300000000     0          
C        C      0.552000000000     0.818800000000     0.409800000000     0          
C        C      0.660635000000     0.580400000000     0.418260000000     0          
C        C      0.673625000000     0.620020000000     0.418480000000     0          
C        C      0.701025000000     0.620790000000     0.443110000000     0          
C        C      0.716490000000     0.582980000000     0.469860000000     0          
C        C      0.702070000000     0.544700000000     0.471020000000     0          
C        C      0.674365000000     0.542090000000     0.446250000000     0          
C        C      0.659475000000     0.500970000000     0.452130000000     0          
C        C      0.597740000000     0.453370000000     0.412870000000     0          
C        C      0.578910000000     0.413220000000     0.417940000000     0          
C        C      0.594195000000     0.384770000000     0.374050000000     0          
C        C      0.640720000000     0.360570000000     0.361550000000     0          
C        C      0.655330000000     0.328820000000     0.319260000000     0          
C        C      0.701890000000     0.304420000000     0.307620000000     0          
C        C      0.817190000000     0.672760000000     0.527880000000     0          
C        C      0.779980000000     0.703210000000     0.553670000000     0          
C        C      0.774520000000     0.750600000000     0.552120000000     0          
C        C      0.805900000000     0.769010000000     0.525190000000     0          
C        C      0.842485000000     0.739120000000     0.500540000000     0          
C        C      0.849210000000     0.690820000000     0.501540000000     0          
C        C      0.889345000000     0.662320000000     0.473100000000     0          
C        C      0.935255000000     0.551370000000     0.435210000000     0          
C        C      0.971450000000     0.520010000000     0.401190000000     0          
C        C      0.958295000000     0.508490000000     0.360530000000     0          
C        C      0.947365000000     0.549980000000     0.329760000000     0          
C        C      0.934310000000     0.540180000000     0.288180000000     0          
C        C      0.924700000000     0.581700000000     0.257900000000     0          
C        C      0.608035000000     0.916120000000     0.452140000000     0          
C        C      0.597405000000     0.875840000000     0.451340000000     0          
C        C      0.604170000000     0.855030000000     0.409490000000     0          
C        C      0.619355000000     0.878120000000     0.370860000000     0          
C        C      0.629370000000     0.918480000000     0.373640000000     0          
C        C      0.593800000000     0.809900000000     0.407900000000     0          
C        C      0.723940000000     0.850410000000     0.183230000000     0          
C        C      0.702625000000     0.828250000000     0.220450000000     0          
C        C      0.703985000000     0.832780000000     0.264680000000     0          
C        C      0.726805000000     0.860110000000     0.273470000000     0          
C        C      0.747510000000     0.882340000000     0.237220000000     0          
C        C      0.747230000000     0.878010000000     0.192070000000     0          
C        C      0.771140000000     0.903450000000     0.155390000000     0          
C        C      0.804475000000     0.907550000000     0.037150000000     0          
C        C      0.833385000000     0.925090000000     0.997370000000     0          
C        C      0.875955000000     0.888130000000     0.980450000000     0          
C        C      0.902000000000     0.903700000000     0.935900000000     0          
C        C      0.935500000000     0.899200000000     0.932400000000     0          
C        C      0.966100000000     0.910600000000     0.882800000000     0          
C        C      0.845085000000     0.803770000000     0.086690000000     0          
C        C      0.880200000000     0.768900000000     0.086900000000     0          
C        C      0.878370000000     0.722720000000     0.090400000000     0          
C        C      0.840985000000     0.715180000000     0.093280000000     0          
C        C      0.806975000000     0.752000000000     0.091700000000     0          
C        C      0.916300000000     0.681200000000     0.090200000000     0          
C        C      0.909965000000     0.919600000000     0.081740000000     0          
C        C      0.942875000000     0.879980000000     0.081520000000     0          
C        C      0.982975000000     0.879210000000     0.056890000000     0          
C        C      0.992910000000     0.917020000000     0.030140000000     0          
C        C      0.959930000000     0.955300000000     0.028980000000     0          
C        C      0.918535000000     0.957910000000     0.053750000000     0          
C        C      0.886025000000     0.999030000000     0.047870000000     0          
C        C      0.780860000000     0.046630000000     0.087130000000     0          
C        C      0.744490000000     0.086780000000     0.082060000000     0          
C        C      0.723605000000     0.115230000000     0.125950000000     0          
C        C      0.751780000000     0.139430000000     0.138450000000     0          
C        C      0.729370000000     0.171180000000     0.180740000000     0          
C        C      0.757910000000     0.195580000000     0.192380000000     0          
C        C      0.667510000000     0.827240000000     0.972120000000     0          
C        C      0.658420000000     0.796790000000     0.946330000000     0          
C        C      0.675880000000     0.749400000000     0.947880000000     0          
C        C      0.703000000000     0.730990000000     0.974810000000     0          
C        C      0.712315000000     0.760880000000     0.999460000000     0          
C        C      0.695390000000     0.809180000000     0.998460000000     0          
C        C      0.707055000000     0.837680000000     0.026900000000     0          
C        C      0.678545000000     0.948630000000     0.064790000000     0          
C        C      0.682050000000     0.979990000000     0.098810000000     0          
C        C      0.642805000000     0.991510000000     0.139470000000     0          
C        C      0.637235000000     0.950020000000     0.170240000000     0          
C        C      0.598490000000     0.959820000000     0.211820000000     0          
C        C      0.594500000000     0.918300000000     0.242100000000     0          
C        C      0.542165000000     0.583880000000     0.047860000000     0          
C        C      0.510995000000     0.624160000000     0.048660000000     0          
C        C      0.986430000000     0.644970000000     0.090510000000     0          
C        C      0.993845000000     0.621880000000     0.129140000000     0          
C        C      0.525430000000     0.581520000000     0.126360000000     0          
C        C      0.952700000000     0.690100000000     0.092100000000     0          
C        C      0.684445000000     0.183230000000     0.649590000000     0          
C        C      0.687150000000     0.220450000000     0.671750000000     0          
C        C      0.663675000000     0.264680000000     0.667220000000     0          
C        C      0.636460000000     0.273470000000     0.639890000000     0          
C        C      0.633880000000     0.237220000000     0.617660000000     0          
C        C      0.656735000000     0.192070000000     0.621990000000     0          
C        C      0.651165000000     0.155390000000     0.596550000000     0          
C        C      0.676950000000     0.037150000000     0.592450000000     0          
C        C      0.667930000000     0.997370000000     0.574910000000     0          
C        C      0.633820000000     0.980450000000     0.611870000000     0          
C        C      0.630050000000     0.935900000000     0.596300000000     0          
C        C      0.598300000000     0.932400000000     0.600800000000     0          
C        C      0.592500000000     0.882800000000     0.589400000000     0          
C        C      0.611570000000     0.086690000000     0.696230000000     0          
C        C      0.576350000000     0.086900000000     0.731100000000     0          
C        C      0.576430000000     0.090400000000     0.777280000000     0          
C        C      0.612375000000     0.093280000000     0.784820000000     0          
C        C      0.647175000000     0.091700000000     0.748000000000     0          
C        C      0.538600000000     0.090200000000     0.818800000000     0          
C        C      0.549165000000     0.081740000000     0.580400000000     0          
C        C      0.516365000000     0.081520000000     0.620020000000     0          
C        C      0.988580000000     0.056890000000     0.620790000000     0          
C        C      0.992020000000     0.030140000000     0.582980000000     0          
C        C      0.525580000000     0.028980000000     0.544700000000     0          
C        C      0.554590000000     0.053750000000     0.542090000000     0          
C        C      0.590040000000     0.047870000000     0.500970000000     0          
C        C      0.675575000000     0.087130000000     0.453370000000     0          
C        C      0.714480000000     0.082060000000     0.413220000000     0          
C        C      0.713420000000     0.125950000000     0.384770000000     0          
C        C      0.678995000000     0.138450000000     0.360570000000     0          
C        C      0.680260000000     0.180740000000     0.328820000000     0          
C        C      0.645900000000     0.192380000000     0.304420000000     0          
C        C      0.846430000000     0.972120000000     0.672760000000     0          
C        C      0.868415000000     0.946330000000     0.703210000000     0          
C        C      0.850180000000     0.947880000000     0.750600000000     0          
C        C      0.809595000000     0.974810000000     0.769010000000     0          
C        C      0.787955000000     0.999460000000     0.739120000000     0          
C        C      0.805380000000     0.998460000000     0.690820000000     0          
C        C      0.779495000000     0.026900000000     0.662320000000     0          
C        C      0.789060000000     0.064790000000     0.551370000000     0          
C        C      0.768545000000     0.098810000000     0.520010000000     0          
C        C      0.787460000000     0.139470000000     0.508490000000     0          
C        C      0.777645000000     0.170240000000     0.549980000000     0          
C        C      0.795600000000     0.211820000000     0.540180000000     0          
C        C      0.784450000000     0.242100000000     0.581700000000     0          
C        C      0.933905000000     0.047860000000     0.916120000000     0          
C        C      0.964675000000     0.048660000000     0.875840000000     0          
C        C      0.968315000000     0.090510000000     0.855030000000     0          
C        C      0.941585000000     0.129140000000     0.878120000000     0          
C        C      0.911390000000     0.126360000000     0.918480000000     0          
C        C      0.501250000000     0.092100000000     0.809900000000     0          
C        C      0.850855000000     0.316770000000     0.850410000000     0          
C        C      0.883250000000     0.279550000000     0.828250000000     0          
C        C      0.879625000000     0.235320000000     0.832780000000     0          
C        C      0.843140000000     0.226530000000     0.860110000000     0          
C        C      0.811320000000     0.262780000000     0.882340000000     0          
C        C      0.813765000000     0.307930000000     0.878010000000     0          
C        C      0.777135000000     0.344610000000     0.903450000000     0          
C        C      0.741750000000     0.462850000000     0.907550000000     0          
C        C      0.704070000000     0.502630000000     0.925090000000     0          
C        C      0.679980000000     0.519550000000     0.888130000000     0          
C        C      0.646150000000     0.564100000000     0.903700000000     0          
C        C      0.614900000000     0.567600000000     0.899200000000     0          
C        C      0.578600000000     0.617200000000     0.910600000000     0          
C        C      0.753030000000     0.413310000000     0.803770000000     0          
C        C      0.735350000000     0.413100000000     0.768900000000     0          
C        C      0.760270000000     0.409600000000     0.722720000000     0          
C        C      0.801425000000     0.406720000000     0.715180000000     0          
C        C      0.817025000000     0.408300000000     0.752000000000     0          
C        C      0.743100000000     0.409800000000     0.681200000000     0          
C        C      0.630235000000     0.418260000000     0.919600000000     0          
C        C      0.617135000000     0.418480000000     0.879980000000     0          
C        C      0.577420000000     0.443110000000     0.879210000000     0          
C        C      0.548580000000     0.469860000000     0.917020000000     0          
C        C      0.562420000000     0.471020000000     0.955300000000     0          
C        C      0.602510000000     0.446250000000     0.957910000000     0          
C        C      0.614460000000     0.452130000000     0.999030000000     0          
C        C      0.695825000000     0.412870000000     0.046630000000     0          
C        C      0.712120000000     0.417940000000     0.086780000000     0          
C        C      0.718780000000     0.374050000000     0.115230000000     0          
C        C      0.678505000000     0.361550000000     0.139430000000     0          
C        C      0.685040000000     0.319260000000     0.171180000000     0          
C        C      0.644300000000     0.307620000000     0.195580000000     0          
C        C      0.918870000000     0.527880000000     0.827240000000     0          
C        C      0.943185000000     0.553670000000     0.796790000000     0          
C        C      0.949420000000     0.552120000000     0.749400000000     0          
C        C      0.931505000000     0.525190000000     0.730990000000     0          
C        C      0.907245000000     0.500540000000     0.760880000000     0          
C        C      0.900020000000     0.501540000000     0.809180000000     0          
C        C      0.874105000000     0.473100000000     0.837680000000     0          
C        C      0.847140000000     0.435210000000     0.948630000000     0          
C        C      0.827955000000     0.401190000000     0.979990000000     0          
C        C      0.861440000000     0.360530000000     0.991510000000     0          
C        C      0.887755000000     0.329760000000     0.950020000000     0          
C        C      0.921600000000     0.288180000000     0.959820000000     0          
C        C      0.946350000000     0.257900000000     0.918300000000     0          
C        C      0.665895000000     0.452140000000     0.583880000000     0          
C        C      0.676925000000     0.451340000000     0.624160000000     0          
C        C      0.691085000000     0.409490000000     0.644970000000     0          
C        C      0.695215000000     0.370860000000     0.621880000000     0          
C        C      0.683810000000     0.373640000000     0.581520000000     0          
C        C      0.702250000000     0.407900000000     0.690100000000     0          
C        C      0.509240000000     0.350410000000     0.683230000000     0          
C        C      0.523025000000     0.328250000000     0.720450000000     0          
C        C      0.997285000000     0.332780000000     0.764680000000     0          
C        C      0.956405000000     0.360110000000     0.773470000000     0          
C        C      0.942710000000     0.382340000000     0.737220000000     0          
C        C      0.967730000000     0.378010000000     0.692070000000     0          
C        C      0.949440000000     0.403450000000     0.655390000000     0          
C        C      0.973175000000     0.407550000000     0.537150000000     0          
C        C      0.955385000000     0.425090000000     0.497370000000     0          
C        C      0.939755000000     0.388130000000     0.480450000000     0          
C        C      0.928200000000     0.403700000000     0.435900000000     0          
C        C      0.898700000000     0.399200000000     0.432400000000     0          
C        C      0.887200000000     0.410600000000     0.382800000000     0          
C        C      0.959685000000     0.303770000000     0.586690000000     0          
C        C      0.941900000000     0.268900000000     0.586900000000     0          
C        C      0.965070000000     0.222720000000     0.590400000000     0          
C        C      0.504785000000     0.215180000000     0.593280000000     0          
C        C      0.521175000000     0.252000000000     0.591700000000     0          
C        C      0.948000000000     0.181200000000     0.590200000000     0          
C        C      0.839365000000     0.419600000000     0.581740000000     0          
C        C      0.826375000000     0.379980000000     0.581520000000     0          
C        C      0.798975000000     0.379210000000     0.556890000000     0          
C        C      0.783510000000     0.417020000000     0.530140000000     0          
C        C      0.797930000000     0.455300000000     0.528980000000     0          
C        C      0.825635000000     0.457910000000     0.553750000000     0          
C        C      0.840525000000     0.499030000000     0.547870000000     0          
C        C      0.902260000000     0.546630000000     0.587130000000     0          
C        C      0.921090000000     0.586780000000     0.582060000000     0          
C        C      0.905805000000     0.615230000000     0.625950000000     0          
C        C      0.859280000000     0.639430000000     0.638450000000     0          
C        C      0.844670000000     0.671180000000     0.680740000000     0          
C        C      0.798110000000     0.695580000000     0.692380000000     0          
C        C      0.682810000000     0.327240000000     0.472120000000     0          
C        C      0.720020000000     0.296790000000     0.446330000000     0          
C        C      0.725480000000     0.249400000000     0.447880000000     0          
C        C      0.694100000000     0.230990000000     0.474810000000     0          
C        C      0.657515000000     0.260880000000     0.499460000000     0          
C        C      0.650790000000     0.309180000000     0.498460000000     0          
C        C      0.610655000000     0.337680000000     0.526900000000     0          
C        C      0.564745000000     0.448630000000     0.564790000000     0          
C        C      0.528550000000     0.479990000000     0.598810000000     0          
C        C      0.541705000000     0.491510000000     0.639470000000     0          
C        C      0.552635000000     0.450020000000     0.670240000000     0          
C        C      0.565690000000     0.459820000000     0.711820000000     0          
C        C      0.575300000000     0.418300000000     0.742100000000     0          
C        C      0.891965000000     0.083880000000     0.547860000000     0          
C        C      0.902595000000     0.124160000000     0.548660000000     0          
C        C      0.895830000000     0.144970000000     0.590510000000     0          
C        C      0.880645000000     0.121880000000     0.629140000000     0          
C        C      0.870630000000     0.081520000000     0.626360000000     0          
C        C      0.906200000000     0.190100000000     0.592100000000     0          
C        C      0.776060000000     0.149590000000     0.816770000000     0          
C        C      0.797375000000     0.171750000000     0.779550000000     0          
C        C      0.796015000000     0.167220000000     0.735320000000     0          
C        C      0.773195000000     0.139890000000     0.726530000000     0          
C        C      0.752490000000     0.117660000000     0.762780000000     0          
C        C      0.752770000000     0.121990000000     0.807930000000     0          
C        C      0.728860000000     0.096550000000     0.844610000000     0          
C        C      0.695525000000     0.092450000000     0.962850000000     0          
C        C      0.666615000000     0.074910000000     0.002630000000     0          
C        C      0.624045000000     0.111870000000     0.019550000000     0          
C        C      0.598000000000     0.096300000000     0.064100000000     0          
C        C      0.564500000000     0.100800000000     0.067600000000     0          
C        C      0.533900000000     0.089400000000     0.117200000000     0          
C        C      0.654915000000     0.196230000000     0.913310000000     0          
C        C      0.619800000000     0.231100000000     0.913100000000     0          
C        C      0.621630000000     0.277280000000     0.909600000000     0          
C        C      0.659015000000     0.284820000000     0.906720000000     0          
C        C      0.693025000000     0.248000000000     0.908300000000     0          
C        C      0.583700000000     0.318800000000     0.909800000000     0          
C        C      0.590035000000     0.080400000000     0.918260000000     0          
C        C      0.557125000000     0.120020000000     0.918480000000     0          
C        C      0.517025000000     0.120790000000     0.943110000000     0          
C        C      0.507090000000     0.082980000000     0.969860000000     0          
C        C      0.540070000000     0.044700000000     0.971020000000     0          
C        C      0.581465000000     0.042090000000     0.946250000000     0          
C        C      0.613975000000     0.000970000000     0.952130000000     0          
C        C      0.719140000000     0.953370000000     0.912870000000     0          
C        C      0.755510000000     0.913220000000     0.917940000000     0          
C        C      0.776395000000     0.884770000000     0.874050000000     0          
C        C      0.748220000000     0.860570000000     0.861550000000     0          
C        C      0.770630000000     0.828820000000     0.819260000000     0          
C        C      0.742090000000     0.804420000000     0.807620000000     0          
C        C      0.832490000000     0.172760000000     0.027880000000     0          
C        C      0.841580000000     0.203210000000     0.053670000000     0          
C        C      0.824120000000     0.250600000000     0.052120000000     0          
C        C      0.797000000000     0.269010000000     0.025190000000     0          
C        C      0.787685000000     0.239120000000     0.000540000000     0          
C        C      0.804610000000     0.190820000000     0.001540000000     0          
C        C      0.792945000000     0.162320000000     0.973100000000     0          
C        C      0.821455000000     0.051370000000     0.935210000000     0          
C        C      0.817950000000     0.020010000000     0.901190000000     0          
C        C      0.857195000000     0.008490000000     0.860530000000     0          
C        C      0.862765000000     0.049980000000     0.829760000000     0          
C        C      0.901510000000     0.040180000000     0.788180000000     0          
C        C      0.905500000000     0.081700000000     0.757900000000     0          
C        C      0.957835000000     0.416120000000     0.952140000000     0          
C        C      0.989005000000     0.375840000000     0.951340000000     0          
C        C      0.513570000000     0.355030000000     0.909490000000     0          
C        C      0.506155000000     0.378120000000     0.870860000000     0          
C        C      0.974570000000     0.418480000000     0.873640000000     0          
C        C      0.547300000000     0.309900000000     0.907900000000     0          
N        N      0.828340000000     0.888480000000     0.397940000000     0          
N        N      0.837870000000     0.920940000000     0.421980000000     0          
N        N      0.852960000000     0.911770000000     0.296390000000     0          
N        N      0.881885000000     0.929600000000     0.502660000000     0          
N        N      0.848390000000     0.939400000000     0.543840000000     0          
N        N      0.703625000000     0.969820000000     0.382300000000     0          
N        N      0.730200000000     0.938300000000     0.405500000000     0          
N        N      0.592330000000     0.914070000000     0.062410000000     0          
N        N      0.721550000000     0.611520000000     0.102060000000     0          
N        N      0.759330000000     0.579060000000     0.078020000000     0          
N        N      0.707040000000     0.588230000000     0.203610000000     0          
N        N      0.848015000000     0.570400000000     0.997340000000     0          
N        N      0.840010000000     0.560600000000     0.956160000000     0          
N        N      0.629685000000     0.530180000000     0.117700000000     0          
N        N      0.652100000000     0.561700000000     0.094500000000     0          
N        N      0.830570000000     0.585930000000     0.437590000000     0          
N        N      0.527310000000     0.602060000000     0.388480000000     0          
N        N      0.548860000000     0.578020000000     0.420940000000     0          
N        N      0.501155000000     0.703610000000     0.411770000000     0          
N        N      0.633215000000     0.497340000000     0.429600000000     0          
N        N      0.620310000000     0.456160000000     0.439400000000     0          
N        N      0.894775000000     0.617700000000     0.469820000000     0          
N        N      0.932950000000     0.594500000000     0.438300000000     0          
N        N      0.623535000000     0.937590000000     0.414070000000     0          
N        N      0.772580000000     0.897940000000     0.111520000000     0          
N        N      0.798340000000     0.921980000000     0.079060000000     0          
N        N      0.808845000000     0.796390000000     0.088230000000     0          
N        N      0.846685000000     0.002660000000     0.070400000000     0          
N        N      0.818090000000     0.043840000000     0.060600000000     0          
N        N      0.688535000000     0.882300000000     0.030180000000     0          
N        N      0.699350000000     0.905500000000     0.061700000000     0          
N        N      0.549365000000     0.562410000000     0.085930000000     0          
N        N      0.671660000000     0.111520000000     0.602060000000     0          
N        N      0.662130000000     0.079060000000     0.578020000000     0          
N        N      0.647040000000     0.088230000000     0.703610000000     0          
N        N      0.618115000000     0.070400000000     0.497340000000     0          
N        N      0.651610000000     0.060600000000     0.456160000000     0          
N        N      0.796375000000     0.030180000000     0.617700000000     0          
N        N      0.769800000000     0.061700000000     0.594500000000     0          
N        N      0.907670000000     0.085930000000     0.937590000000     0          
N        N      0.778450000000     0.388480000000     0.897940000000     0          
N        N      0.740670000000     0.420940000000     0.921980000000     0          
N        N      0.792960000000     0.411770000000     0.796390000000     0          
N        N      0.651985000000     0.429600000000     0.002660000000     0          
N        N      0.659990000000     0.439400000000     0.043840000000     0          
N        N      0.870315000000     0.469820000000     0.882300000000     0          
N        N      0.847900000000     0.438300000000     0.905500000000     0          
N        N      0.669430000000     0.414070000000     0.562410000000     0          
N        N      0.972690000000     0.397940000000     0.611520000000     0          
N        N      0.951140000000     0.421980000000     0.579060000000     0          
N        N      0.998845000000     0.296390000000     0.588230000000     0          
N        N      0.866785000000     0.502660000000     0.570400000000     0          
N        N      0.879690000000     0.543840000000     0.560600000000     0          
N        N      0.605225000000     0.382300000000     0.530180000000     0          
N        N      0.567050000000     0.405500000000     0.561700000000     0          
N        N      0.876465000000     0.062410000000     0.585930000000     0          
N        N      0.727420000000     0.102060000000     0.888480000000     0          
N        N      0.701660000000     0.078020000000     0.920940000000     0          
N        N      0.691155000000     0.203610000000     0.911770000000     0          
N        N      0.653315000000     0.997340000000     0.929600000000     0          
N        N      0.681910000000     0.956160000000     0.939400000000     0          
N        N      0.811465000000     0.117700000000     0.969820000000     0          
N        N      0.800650000000     0.094500000000     0.938300000000     0          
N        N      0.950635000000     0.437590000000     0.914070000000     0          
O        O      0.791790000000     0.859070000000     0.343110000000    -1.025      
O        O      0.873330000000     0.833590000000     0.429890000000    -1.025      
O        O      0.802840000000     0.971330000000     0.376050000000    -1.025      
O        O      0.926665000000     0.891730000000     0.418970000000    -1.025      
O        O      0.906450000000     0.980100000000     0.530980000000    -1.025      
O        O      0.832500000000     0.880910000000     0.515670000000    -1.025      
O        O      0.632905000000     0.031230000000     0.371970000000    -1.025      
O        O      0.758570000000     0.951720000000     0.317940000000    -1.025      
O        O      0.672890000000     0.959640000000     0.466840000000    -1.025      
O        O      0.642880000000     0.640930000000     0.156890000000    -1.025      
O        O      0.755070000000     0.666410000000     0.070110000000    -1.025      
O        O      0.726530000000     0.528670000000     0.123950000000    -1.025      
O        O      0.832015000000     0.608270000000     0.081030000000    -1.025      
O        O      0.911990000000     0.519900000000     0.969020000000    -1.025      
O        O      0.780790000000     0.619090000000     0.984330000000    -1.025      
O        O      0.584505000000     0.468770000000     0.128030000000    -1.025      
O        O      0.643400000000     0.548280000000     0.182060000000    -1.025      
O        O      0.636130000000     0.540360000000     0.033160000000    -1.025      
O        O      0.963345000000     0.656890000000     0.359070000000    -1.025      
O        O      0.588275000000     0.570110000000     0.333590000000    -1.025      
O        O      0.990865000000     0.623950000000     0.471330000000    -1.025      
O        O      0.636150000000     0.581030000000     0.391730000000    -1.025      
O        O      0.671940000000     0.469020000000     0.480100000000    -1.025      
O        O      0.590335000000     0.484330000000     0.380910000000    -1.025      
O        O      0.818890000000     0.628030000000     0.531230000000    -1.025      
O        O      0.917540000000     0.682060000000     0.451720000000    -1.025      
O        O      0.906310000000     0.533160000000     0.459640000000    -1.025      
O        O      0.721325000000     0.843110000000     0.140930000000    -1.025      
O        O      0.790125000000     0.929890000000     0.166410000000    -1.025      
O        O      0.788505000000     0.876050000000     0.028670000000    -1.025      
O        O      0.872530000000     0.918970000000     0.108270000000    -1.025      
O        O      0.896500000000     0.030980000000     0.019900000000    -1.025      
O        O      0.772955000000     0.015670000000     0.119090000000    -1.025      
O        O      0.648520000000     0.871970000000     0.968770000000    -1.025      
O        O      0.734430000000     0.817940000000     0.048280000000    -1.025      
O        O      0.652710000000     0.966840000000     0.040360000000    -1.025      
O        O      0.708210000000     0.140930000000     0.656890000000    -1.025      
O        O      0.626670000000     0.166410000000     0.570110000000    -1.025      
O        O      0.697160000000     0.028670000000     0.623950000000    -1.025      
O        O      0.573335000000     0.108270000000     0.581030000000    -1.025      
O        O      0.593550000000     0.019900000000     0.469020000000    -1.025      
O        O      0.667500000000     0.119090000000     0.484330000000    -1.025      
O        O      0.867095000000     0.968770000000     0.628030000000    -1.025      
O        O      0.741430000000     0.048280000000     0.682060000000    -1.025      
O        O      0.827110000000     0.040360000000     0.533160000000    -1.025      
O        O      0.857120000000     0.359070000000     0.843110000000    -1.025      
O        O      0.744930000000     0.333590000000     0.929890000000    -1.025      
O        O      0.773470000000     0.471330000000     0.876050000000    -1.025      
O        O      0.667985000000     0.391730000000     0.918970000000    -1.025      
O        O      0.588010000000     0.480100000000     0.030980000000    -1.025      
O        O      0.719210000000     0.380910000000     0.015670000000    -1.025      
O        O      0.915495000000     0.531230000000     0.871970000000    -1.025      
O        O      0.856600000000     0.451720000000     0.817940000000    -1.025      
O        O      0.863870000000     0.459640000000     0.966840000000    -1.025      
O        O      0.536655000000     0.343110000000     0.640930000000    -1.025      
O        O      0.911725000000     0.429890000000     0.666410000000    -1.025      
O        O      0.509135000000     0.376050000000     0.528670000000    -1.025      
O        O      0.863850000000     0.418970000000     0.608270000000    -1.025      
O        O      0.828060000000     0.530980000000     0.519900000000    -1.025      
O        O      0.909665000000     0.515670000000     0.619090000000    -1.025      
O        O      0.681110000000     0.371970000000     0.468770000000    -1.025      
O        O      0.582460000000     0.317940000000     0.548280000000    -1.025      
O        O      0.593690000000     0.466840000000     0.540360000000    -1.025      
O        O      0.778675000000     0.156890000000     0.859070000000    -1.025      
O        O      0.709875000000     0.070110000000     0.833590000000    -1.025      
O        O      0.711495000000     0.123950000000     0.971330000000    -1.025      
O        O      0.627470000000     0.081030000000     0.891730000000    -1.025      
O        O      0.603500000000     0.969020000000     0.980100000000    -1.025      
O        O      0.727045000000     0.984330000000     0.880910000000    -1.025      
O        O      0.851480000000     0.128030000000     0.031230000000    -1.025      
O        O      0.765570000000     0.182060000000     0.951720000000    -1.025      
O        O      0.847290000000     0.033160000000     0.959640000000    -1.025      


