data_[CoreMOF]TOFTIT_clean

_audit_creation_method RASPA-1.0
_audit_creation_date 2025-1-26
_audit_author_name ''

_cell_length_a    31.4955
_cell_length_b    31.4955
_cell_length_c    31.6234
_cell_angle_alpha 119.866
_cell_angle_beta  119.866
_cell_angle_gamma 90
_cell_volume      44542.1

_symmetry_cell_setting          triclinic
_symmetry_space_group_name_Hall 'P 1'
_symmetry_space_group_name_H-M  'P 1'
_symmetry_Int_Tables_number     1

_symmetry_equiv_pos_as_xyz 'x,y,z'

loop_
_atom_site_label
_atom_site_type_symbol
_atom_site_fract_x
_atom_site_fract_y
_atom_site_fract_z
_atom_site_charge
Cu1      Cu     0.769620000000     0.732280000000     0.125710000000     0.0548979  
Cu1      Cu     0.769620000000     0.732280000000     0.625710000000     0.0548979  
Cu2      Cu     0.518190000000     0.480860000000     0.374285000000     0.264063   
Cu2      Cu     0.518190000000     0.480860000000     0.874285000000     0.264063   
Cu3      Cu     0.481810000000     0.519140000000     0.125715000000     0.090701   
Cu3      Cu     0.481810000000     0.519140000000     0.625715000000     0.090701   
Cu4      Cu     0.453330000000     0.165840000000     0.000005000000     0.0660097  
Cu4      Cu     0.453330000000     0.165840000000     0.500005000000     0.0660097  
Cu5      Cu     0.809680000000     0.475760000000     0.167430000000     0.0549014  
Cu5      Cu     0.809680000000     0.475760000000     0.667430000000     0.0549014  
Cu6      Cu     0.834160000000     0.453330000000     0.000000000000     0.0853118  
Cu6      Cu     0.834160000000     0.453330000000     0.500000000000     0.0853118  
Cu7      Cu     0.732280000000     0.481810000000     0.125710000000     0.0910989  
Cu7      Cu     0.732280000000     0.481810000000     0.625710000000     0.0910989  
Cu8      Cu     0.859100000000     0.809680000000     0.167430000000     0.0910988  
Cu8      Cu     0.859100000000     0.809680000000     0.667430000000     0.0910988  
Cu9      Cu     0.750720000000     0.464560000000     0.000000000000     0.143187   
Cu9      Cu     0.750720000000     0.464560000000     0.500000000000     0.143187   
Cu10     Cu     0.140900000000     0.190320000000     0.332570000000     0.0679863  
Cu10     Cu     0.140900000000     0.190320000000     0.832570000000     0.0679863  
Cu11     Cu     0.525180000000     0.859100000000     0.167430000000     0.066013   
Cu11     Cu     0.525180000000     0.859100000000     0.667430000000     0.066013   
Cu12     Cu     0.475760000000     0.525180000000     0.167430000000     0.143402   
Cu12     Cu     0.475760000000     0.525180000000     0.667430000000     0.143402   
Cu13     Cu     0.464560000000     0.249280000000     0.000000000000     0.0830956  
Cu13     Cu     0.464560000000     0.249280000000     0.500000000000     0.0830956  
Cu14     Cu     0.535440000000     0.750720000000     0.000000000000     0.262649   
Cu14     Cu     0.535440000000     0.750720000000     0.500000000000     0.262649   
Cu15     Cu     0.230380000000     0.267720000000     0.374290000000     0.0549146  
Cu15     Cu     0.230380000000     0.267720000000     0.874290000000     0.0549146  
Cu16     Cu     0.519140000000     0.769620000000     0.125715000000     0.0830689  
Cu16     Cu     0.519140000000     0.769620000000     0.625715000000     0.0830689  
Cu17     Cu     0.249280000000     0.535440000000     0.000000000000     0.0911202  
Cu17     Cu     0.249280000000     0.535440000000     0.500000000000     0.0911202  
Cu18     Cu     0.165840000000     0.546670000000     0.000000000000     0.0581273  
Cu18     Cu     0.165840000000     0.546670000000     0.500000000000     0.0581273  
Cu19     Cu     0.474820000000     0.140900000000     0.332570000000     0.0679806  
Cu19     Cu     0.474820000000     0.140900000000     0.832570000000     0.0679806  
Cu20     Cu     0.524240000000     0.474820000000     0.332570000000     0.263906   
Cu20     Cu     0.524240000000     0.474820000000     0.832570000000     0.263906   
Cu21     Cu     0.546670000000     0.834160000000     0.499995000000     0.0581732  
Cu21     Cu     0.546670000000     0.834160000000     0.999995000000     0.0581732  
Cu22     Cu     0.267720000000     0.518190000000     0.374290000000     0.0658493  
Cu22     Cu     0.267720000000     0.518190000000     0.874290000000     0.0658493  
Cu23     Cu     0.190320000000     0.524240000000     0.332570000000     0.0780067  
Cu23     Cu     0.190320000000     0.524240000000     0.832570000000     0.0780067  
Cu24     Cu     0.480860000000     0.230380000000     0.374285000000     0.0907099  
Cu24     Cu     0.480860000000     0.230380000000     0.874285000000     0.0907099  
H1       H      0.926200000000     0.899200000000     0.205400000000     0.0581774  
H1       H      0.926200000000     0.899200000000     0.705400000000     0.0581774  
H2       H      0.214500000000     0.746300000000     0.363300000000     0.0581115  
H2       H      0.214500000000     0.746300000000     0.863300000000     0.0581115  
H3       H      0.274500000000     0.896900000000     0.392200000000     0.0503722  
H3       H      0.274500000000     0.896900000000     0.892200000000     0.0503722  
H4       H      0.691300000000     0.786500000000     0.070500000000     0.0848663  
H4       H      0.691300000000     0.786500000000     0.570500000000     0.0848663  
H5       H      0.930700000000     0.614600000000     0.061900000000     0.0778105  
H5       H      0.930700000000     0.614600000000     0.561900000000     0.0778105  
H6       H      0.463900000000     0.182300000000     0.275400000000     0.264031   
H6       H      0.463900000000     0.182300000000     0.775400000000     0.264031   
H7       H      0.564600000000     0.770700000000     0.428000000000     0.0831856  
H7       H      0.564600000000     0.770700000000     0.928000000000     0.0831856  
H8       H      0.330200000000     0.519600000000     0.072200000000     0.0502457  
H8       H      0.330200000000     0.519600000000     0.572200000000     0.0502457  
H9       H      0.624800000000     0.330200000000     0.072200000000     0.263875   
H9       H      0.624800000000     0.330200000000     0.572200000000     0.263875   
H10      H      0.462300000000     0.207600000000     0.107000000000     0.0911177  
H10      H      0.462300000000     0.207600000000     0.607000000000     0.0911177  
H11      H      0.490100000000     0.112500000000     0.107800000000     0.058135   
H11      H      0.490100000000     0.112500000000     0.607800000000     0.058135   
H12      H      0.689400000000     0.500200000000     0.374800000000     0.0907695  
H12      H      0.689400000000     0.500200000000     0.874800000000     0.0907695  
H13      H      0.073800000000     0.100800000000     0.294600000000     0.0603311  
H13      H      0.073800000000     0.100800000000     0.794600000000     0.0603311  
H14      H      0.691600000000     0.934500000000     0.224400000000     0.0780071  
H14      H      0.691600000000     0.934500000000     0.724400000000     0.0780071  
H15      H      0.725500000000     0.103100000000     0.107800000000     0.0848397  
H15      H      0.725500000000     0.103100000000     0.607800000000     0.0848397  
H16      H      0.914700000000     0.435400000000     0.072000000000     0.0603389  
H16      H      0.914700000000     0.435400000000     0.572000000000     0.0603389  
H17      H      0.308700000000     0.213500000000     0.429500000000     0.163923   
H17      H      0.308700000000     0.213500000000     0.929500000000     0.163923   
H18      H      0.490800000000     0.069300000000     0.438100000000     0.0850249  
H18      H      0.490800000000     0.069300000000     0.938100000000     0.0850249  
H19      H      0.511600000000     0.926200000000     0.205400000000     0.143169   
H19      H      0.511600000000     0.926200000000     0.705400000000     0.143169   
H20      H      0.205800000000     0.468400000000     0.228300000000     0.163832   
H20      H      0.205800000000     0.468400000000     0.728300000000     0.163832   
H21      H      0.322100000000     0.501400000000     0.413400000000     0.0852895  
H21      H      0.322100000000     0.501400000000     0.913400000000     0.0852895  
H22      H      0.905800000000     0.445600000000     0.135300000000     0.08317    
H22      H      0.905800000000     0.445600000000     0.635300000000     0.08317    
H23      H      0.185800000000     0.375200000000     0.427800000000     0.262633   
H23      H      0.185800000000     0.375200000000     0.927800000000     0.262633   
H24      H      0.749200000000     0.011800000000     0.271700000000     0.077608   
H24      H      0.749200000000     0.011800000000     0.771700000000     0.077608   
H25      H      0.069300000000     0.385400000000     0.438100000000     0.0548985  
H25      H      0.069300000000     0.385400000000     0.938100000000     0.0548985  
H26      H      0.913100000000     0.631500000000     0.224600000000     0.0907177  
H26      H      0.913100000000     0.631500000000     0.724600000000     0.0907177  
H27      H      0.817700000000     0.913100000000     0.224600000000     0.0601485  
H27      H      0.817700000000     0.913100000000     0.724600000000     0.0601485  
H28      H      0.059900000000     0.445000000000     0.092200000000     0.264052   
H28      H      0.059900000000     0.445000000000     0.592200000000     0.264052   
H29      H      0.516100000000     0.679300000000     0.158500000000     0.0778035  
H29      H      0.516100000000     0.679300000000     0.658500000000     0.0778035  
H30      H      0.480400000000     0.185800000000     0.427800000000     0.26265    
H30      H      0.480400000000     0.185800000000     0.927800000000     0.26265    
H31      H      0.940100000000     0.555000000000     0.407800000000     0.0601434  
H31      H      0.940100000000     0.555000000000     0.907800000000     0.0601434  
H32      H      0.750600000000     0.310600000000     0.125200000000     0.0907737  
H32      H      0.750600000000     0.310600000000     0.625200000000     0.0907737  
H33      H      0.484600000000     0.511600000000     0.205400000000     0.143109   
H33      H      0.484600000000     0.511600000000     0.705400000000     0.143109   
H34      H      0.531600000000     0.749200000000     0.271700000000     0.0549098  
H34      H      0.531600000000     0.749200000000     0.771700000000     0.0549098  
H35      H      0.939800000000     0.750600000000     0.125200000000     0.163924   
H35      H      0.939800000000     0.750600000000     0.625200000000     0.163924   
H36      H      0.631500000000     0.536100000000     0.224600000000     0.0601361  
H36      H      0.631500000000     0.536100000000     0.724600000000     0.0601361  
H37      H      0.487900000000     0.019700000000     0.136700000000     0.0503814  
H37      H      0.487900000000     0.019700000000     0.636700000000     0.0503814  
H38      H      0.637700000000     0.516100000000     0.158500000000     0.0548963  
H38      H      0.637700000000     0.516100000000     0.658500000000     0.0548963  
H39      H      0.674600000000     0.677900000000     0.086600000000     0.0911052  
H39      H      0.674600000000     0.677900000000     0.586600000000     0.0911052  
H40      H      0.746300000000     0.512100000000     0.363300000000     0.0679864  
H40      H      0.746300000000     0.512100000000     0.863300000000     0.0679864  
H41      H      0.814200000000     0.624800000000     0.072200000000     0.0911257  
H41      H      0.814200000000     0.624800000000     0.572200000000     0.0911257  
H42      H      0.085300000000     0.564600000000     0.428000000000     0.264033   
H42      H      0.085300000000     0.564600000000     0.928000000000     0.264033   
H43      H      0.364800000000     0.825000000000     0.135300000000     0.0603328  
H43      H      0.364800000000     0.825000000000     0.635300000000     0.0603328  
H44      H      0.512100000000     0.980300000000     0.363300000000     0.0680141  
H44      H      0.512100000000     0.980300000000     0.863300000000     0.0680141  
H45      H      0.019700000000     0.785500000000     0.136700000000     0.0852951  
H45      H      0.019700000000     0.785500000000     0.636700000000     0.0852951  
H46      H      0.792400000000     0.248300000000     0.393000000000     0.0680066  
H46      H      0.792400000000     0.248300000000     0.893000000000     0.0680066  
H47      H      0.509200000000     0.930700000000     0.061900000000     0.262655   
H47      H      0.509200000000     0.930700000000     0.561900000000     0.262655   
H48      H      0.229300000000     0.708600000000     0.072000000000     0.0657914  
H48      H      0.229300000000     0.708600000000     0.572000000000     0.0657914  
H49      H      0.504700000000     0.325400000000     0.413400000000     0.0848115  
H49      H      0.504700000000     0.325400000000     0.913400000000     0.0848115  
H50      H      0.060200000000     0.249400000000     0.374800000000     0.14316    
H50      H      0.060200000000     0.249400000000     0.874800000000     0.14316    
H51      H      0.751700000000     0.006400000000     0.107000000000     0.0830408  
H51      H      0.751700000000     0.006400000000     0.607000000000     0.0830408  
H52      H      0.495300000000     0.674600000000     0.086600000000     0.0679766  
H52      H      0.495300000000     0.674600000000     0.586600000000     0.0679766  
H53      H      0.086900000000     0.368500000000     0.275400000000     0.262661   
H53      H      0.086900000000     0.368500000000     0.775400000000     0.262661   
H54      H      0.785500000000     0.253700000000     0.136700000000     0.0581797  
H54      H      0.785500000000     0.253700000000     0.636700000000     0.0581797  
H55      H      0.554400000000     0.635200000000     0.364700000000     0.0548923  
H55      H      0.554400000000     0.635200000000     0.864700000000     0.0548923  
H56      H      0.213500000000     0.550300000000     0.429500000000     0.143409   
H56      H      0.213500000000     0.550300000000     0.929500000000     0.143409   
H57      H      0.291400000000     0.085300000000     0.428000000000     0.0503799  
H57      H      0.291400000000     0.085300000000     0.928000000000     0.0503799  
H58      H      0.514300000000     0.691600000000     0.224400000000     0.084846   
H58      H      0.514300000000     0.691600000000     0.724400000000     0.084846   
H59      H      0.645500000000     0.308700000000     0.429500000000     0.0680148  
H59      H      0.645500000000     0.308700000000     0.929500000000     0.0680148  
H60      H      0.509900000000     0.887500000000     0.392200000000     0.263876   
H60      H      0.509900000000     0.887500000000     0.892200000000     0.263876   
H61      H      0.614600000000     0.193100000000     0.061900000000     0.0680083  
H61      H      0.614600000000     0.193100000000     0.561900000000     0.0680083  
H62      H      0.124500000000     0.739400000000     0.092200000000     0.0831114  
H62      H      0.124500000000     0.739400000000     0.592200000000     0.0831114  
H63      H      0.112500000000     0.725500000000     0.107800000000     0.0848462  
H63      H      0.112500000000     0.725500000000     0.607800000000     0.0848462  
H64      H      0.385400000000     0.806900000000     0.438100000000     0.163837   
H64      H      0.385400000000     0.806900000000     0.938100000000     0.163837   
H65      H      0.249400000000     0.689400000000     0.374800000000     0.0907795  
H65      H      0.249400000000     0.689400000000     0.874800000000     0.0907795  
H66      H      0.899200000000     0.484600000000     0.205400000000     0.0907753  
H66      H      0.899200000000     0.484600000000     0.705400000000     0.0907753  
H67      H      0.708600000000     0.914700000000     0.072000000000     0.0581429  
H67      H      0.708600000000     0.914700000000     0.572000000000     0.0581429  
H68      H      0.250800000000     0.988200000000     0.228300000000     0.0831859  
H68      H      0.250800000000     0.988200000000     0.728300000000     0.0831859  
H69      H      0.445600000000     0.364800000000     0.135300000000     0.0850602  
H69      H      0.445600000000     0.364800000000     0.635300000000     0.0850602  
H70      H      0.354500000000     0.691300000000     0.070500000000     0.163923   
H70      H      0.354500000000     0.691300000000     0.570500000000     0.163923   
H71      H      0.325400000000     0.322100000000     0.413400000000     0.0503719  
H71      H      0.325400000000     0.322100000000     0.913400000000     0.0503719  
H72      H      0.435400000000     0.229300000000     0.072000000000     0.0660052  
H72      H      0.435400000000     0.229300000000     0.572000000000     0.0660052  
H73      H      0.515400000000     0.488400000000     0.294600000000     0.0549033  
H73      H      0.515400000000     0.488400000000     0.794600000000     0.0549033  
H74      H      0.449700000000     0.354500000000     0.070500000000     0.0502933  
H74      H      0.449700000000     0.354500000000     0.570500000000     0.0502933  
H75      H      0.094200000000     0.554400000000     0.364700000000     0.0906494  
H75      H      0.094200000000     0.554400000000     0.864700000000     0.0906494  
H76      H      0.739400000000     0.059900000000     0.092200000000     0.0848301  
H76      H      0.739400000000     0.059900000000     0.592200000000     0.0848301  
H77      H      0.794200000000     0.531600000000     0.271700000000     0.0660117  
H77      H      0.794200000000     0.531600000000     0.771700000000     0.0660117  
H78      H      0.887500000000     0.274500000000     0.392200000000     0.0503086  
H78      H      0.887500000000     0.274500000000     0.892200000000     0.0503086  
H79      H      0.786500000000     0.449700000000     0.070500000000     0.0911153  
H79      H      0.786500000000     0.449700000000     0.570500000000     0.0911153  
H80      H      0.993600000000     0.537700000000     0.393000000000     0.143403   
H80      H      0.993600000000     0.537700000000     0.893000000000     0.143403   
H81      H      0.011800000000     0.794200000000     0.271700000000     0.0848329  
H81      H      0.011800000000     0.794200000000     0.771700000000     0.0848329  
H82      H      0.368500000000     0.463900000000     0.275400000000     0.263906   
H82      H      0.368500000000     0.463900000000     0.775400000000     0.263906   
H83      H      0.679300000000     0.800900000000     0.158500000000     0.0779941  
H83      H      0.679300000000     0.800900000000     0.658500000000     0.0779941  
H84      H      0.182300000000     0.086900000000     0.275400000000     0.0848289  
H84      H      0.182300000000     0.086900000000     0.775400000000     0.0848289  
H85      H      0.501400000000     0.504700000000     0.413400000000     0.143413   
H85      H      0.501400000000     0.504700000000     0.913400000000     0.143413   
H86      H      0.550300000000     0.645500000000     0.429500000000     0.108582   
H86      H      0.550300000000     0.645500000000     0.929500000000     0.108582   
H87      H      0.483900000000     0.320700000000     0.341500000000     0.0131397  
H87      H      0.483900000000     0.320700000000     0.841500000000     0.0131397  
H88      H      0.806900000000     0.490800000000     0.438100000000     0.102874   
H88      H      0.806900000000     0.490800000000     0.938100000000     0.102874   
H89      H      0.199100000000     0.362300000000     0.341500000000    -0.0673089  
H89      H      0.199100000000     0.362300000000     0.841500000000    -0.0673089  
H90      H      0.488400000000     0.073800000000     0.294600000000     0.00681124 
H90      H      0.488400000000     0.073800000000     0.794600000000     0.00681124 
H91      H      0.519600000000     0.814200000000     0.072200000000     0.130445   
H91      H      0.519600000000     0.814200000000     0.572200000000     0.130445   
H92      H      0.934500000000     0.757200000000     0.224400000000     0.130314   
H92      H      0.934500000000     0.757200000000     0.724400000000     0.130314   
H93      H      0.445000000000     0.124500000000     0.092200000000     0.100863   
H93      H      0.445000000000     0.124500000000     0.592200000000     0.100863   
H94      H      0.499800000000     0.939800000000     0.125200000000    -0.0631586  
H94      H      0.499800000000     0.939800000000     0.625200000000    -0.0631586  
H95      H      0.800900000000     0.637700000000     0.158500000000     0.401862   
H95      H      0.800900000000     0.637700000000     0.658500000000     0.401862   
H96      H      0.100800000000     0.515400000000     0.294600000000     0.401874   
H96      H      0.100800000000     0.515400000000     0.794600000000     0.401874   
H97      H      0.980300000000     0.214500000000     0.363300000000     0.00755994 
H97      H      0.980300000000     0.214500000000     0.863300000000     0.00755994 
H98      H      0.468400000000     0.250800000000     0.228300000000     0.102894   
H98      H      0.468400000000     0.250800000000     0.728300000000     0.102894   
H99      H      0.555000000000     0.875500000000     0.407800000000     0.0545193  
H99      H      0.555000000000     0.875500000000     0.907800000000     0.0545193  
H100     H      0.248300000000     0.993600000000     0.393000000000     0.393175   
H100     H      0.248300000000     0.993600000000     0.893000000000     0.393175   
H101     H      0.308400000000     0.065500000000     0.275600000000    -0.014003   
H101     H      0.308400000000     0.065500000000     0.775600000000    -0.014003   
H102     H      0.320700000000     0.199100000000     0.341500000000    -0.0177439  
H102     H      0.320700000000     0.199100000000     0.841500000000    -0.0177439  
H103     H      0.498600000000     0.495300000000     0.086600000000    -0.0554706  
H103     H      0.498600000000     0.495300000000     0.586600000000    -0.0554706  
H104     H      0.362300000000     0.483900000000     0.341500000000     0.0989628  
H104     H      0.362300000000     0.483900000000     0.841500000000     0.0989628  
H105     H      0.310600000000     0.499800000000     0.125200000000    -0.0554689  
H105     H      0.310600000000     0.499800000000     0.625200000000    -0.0554689  
H106     H      0.065500000000     0.242800000000     0.275600000000     0.012957   
H106     H      0.065500000000     0.242800000000     0.775600000000     0.012957   
H107     H      0.103100000000     0.490100000000     0.107800000000     0.0545307  
H107     H      0.103100000000     0.490100000000     0.607800000000     0.0545307  
H108     H      0.175000000000     0.094200000000     0.364700000000    -0.0554766  
H108     H      0.175000000000     0.094200000000     0.864700000000    -0.0554766  
H109     H      0.635200000000     0.175000000000     0.364700000000     0.0546165  
H109     H      0.635200000000     0.175000000000     0.864700000000     0.0546165  
H110     H      0.253700000000     0.487900000000     0.136700000000    -0.066535   
H110     H      0.253700000000     0.487900000000     0.636700000000    -0.066535   
H111     H      0.500200000000     0.060200000000     0.374800000000    -0.0677176  
H111     H      0.500200000000     0.060200000000     0.874800000000    -0.0677176  
H112     H      0.193100000000     0.509200000000     0.061900000000     0.396362   
H112     H      0.193100000000     0.509200000000     0.561900000000     0.396362   
H113     H      0.896900000000     0.509900000000     0.392200000000     0.0988304  
H113     H      0.896900000000     0.509900000000     0.892200000000     0.0988304  
H114     H      0.537700000000     0.792400000000     0.393000000000    -0.0279467  
H114     H      0.537700000000     0.792400000000     0.893000000000    -0.0279467  
H115     H      0.375200000000     0.669800000000     0.427800000000     0.0985086  
H115     H      0.375200000000     0.669800000000     0.927800000000     0.0985086  
H116     H      0.988200000000     0.205800000000     0.228300000000     0.0988688  
H116     H      0.988200000000     0.205800000000     0.728300000000     0.0988688  
H117     H      0.006400000000     0.462300000000     0.107000000000     0.393199   
H117     H      0.006400000000     0.462300000000     0.607000000000     0.393199   
H118     H      0.825000000000     0.905800000000     0.135300000000    -0.0918049  
H118     H      0.825000000000     0.905800000000     0.635300000000    -0.0918049  
H119     H      0.485700000000     0.308400000000     0.275600000000     0.0988449  
H119     H      0.485700000000     0.308400000000     0.775600000000     0.0988449  
H120     H      0.669800000000     0.480400000000     0.427800000000     0.39829    
H120     H      0.669800000000     0.480400000000     0.927800000000     0.39829    
H121     H      0.207600000000     0.751700000000     0.107000000000     0.130445   
H121     H      0.207600000000     0.751700000000     0.607000000000     0.130445   
H122     H      0.536100000000     0.817700000000     0.224600000000    -0.0674307  
H122     H      0.536100000000     0.817700000000     0.724600000000    -0.0674307  
H123     H      0.260600000000     0.940100000000     0.407800000000    -0.0682837  
H123     H      0.260600000000     0.940100000000     0.907800000000    -0.0682837  
H124     H      0.757200000000     0.514300000000     0.224400000000    -0.068297   
H124     H      0.757200000000     0.514300000000     0.724400000000    -0.068297   
H125     H      0.677900000000     0.498600000000     0.086600000000    -0.061492   
H125     H      0.677900000000     0.498600000000     0.586600000000    -0.061492   
H126     H      0.770700000000     0.291400000000     0.428000000000    -0.0673297  
H126     H      0.770700000000     0.291400000000     0.928000000000    -0.0673297  
H127     H      0.242800000000     0.485700000000     0.275600000000     0.40235    
H127     H      0.242800000000     0.485700000000     0.775600000000     0.40235    
H128     H      0.875500000000     0.260600000000     0.407800000000    -0.0644905  
H128     H      0.875500000000     0.260600000000     0.907800000000    -0.0644905  
C1       C      0.706330000000     0.229200000000     0.394400000000    -0.0177381  
C1       C      0.706330000000     0.229200000000     0.894400000000    -0.0177381  
C2       C      0.711350000000     0.819680000000     0.079530000000    -0.0632974  
C2       C      0.711350000000     0.819680000000     0.579530000000    -0.0632974  
C3       C      0.930550000000     0.697690000000     0.228420000000    -0.0703865  
C3       C      0.930550000000     0.697690000000     0.728420000000    -0.0703865  
C4       C      0.445040000000     0.345550000000     0.118210000000     0.401896   
C4       C      0.445040000000     0.345550000000     0.618210000000     0.401896   
C5       C      0.481680000000     0.300630000000     0.323930000000    -0.0673045  
C5       C      0.481680000000     0.300630000000     0.823930000000    -0.0673045  
C6       C      0.855750000000     0.202480000000     0.370440000000     0.108431   
C6       C      0.855750000000     0.202480000000     0.870440000000     0.108431   
C7       C      0.461600000000     0.144250000000     0.129560000000     0.012942   
C7       C      0.461600000000     0.144250000000     0.629560000000     0.012942   
C8       C      0.178750000000     0.479850000000     0.120620000000    -0.0673132  
C8       C      0.178750000000     0.479850000000     0.620620000000    -0.0673132  
C9       C      0.131370000000     0.388710000000     0.436150000000    -0.0703778  
C9       C      0.131370000000     0.388710000000     0.936150000000    -0.0703778  
C10      C      0.472380000000     0.224020000000     0.325950000000    -0.0280181  
C10      C      0.472380000000     0.224020000000     0.825950000000    -0.0280181  
C11      C      0.527620000000     0.775980000000     0.174050000000     0.130442   
C11      C      0.527620000000     0.775980000000     0.674050000000     0.130442   
C12      C      0.640040000000     0.309500000000     0.078210000000     0.402305   
C12      C      0.640040000000     0.309500000000     0.578210000000     0.402305   
C13      C      0.697690000000     0.526290000000     0.228420000000    -0.0918142  
C13      C      0.697690000000     0.526290000000     0.728420000000    -0.0918142  
C14      C      0.851740000000     0.203210000000     0.161840000000     0.0129576  
C14      C      0.851740000000     0.203210000000     0.661840000000     0.0129576  
C15      C      0.485830000000     0.147970000000     0.381680000000     0.0529494  
C15      C      0.485830000000     0.147970000000     0.881680000000     0.0529494  
C16      C      0.770080000000     0.214800000000     0.381510000000    -0.0575201  
C16      C      0.770080000000     0.214800000000     0.881510000000    -0.0575201  
C17      C      0.468550000000     0.219560000000     0.226360000000     0.398446   
C17      C      0.468550000000     0.219560000000     0.726360000000     0.398446   
C18      C      0.535120000000     0.834270000000     0.321380000000     0.0938225  
C18      C      0.535120000000     0.834270000000     0.821380000000     0.0938225  
C19      C      0.774520000000     0.168690000000     0.362310000000    -0.0721031  
C19      C      0.774520000000     0.168690000000     0.862310000000    -0.0721031  
C20      C      0.808490000000     0.535120000000     0.321380000000     0.00684252 
C20      C      0.808490000000     0.535120000000     0.821380000000     0.00684252 
C21      C      0.552290000000     0.660620000000     0.420470000000    -0.0814841  
C21      C      0.552290000000     0.660620000000     0.920470000000    -0.0814841  
C22      C      0.120470000000     0.851740000000     0.161840000000    -0.0139011  
C22      C      0.120470000000     0.851740000000     0.661840000000    -0.0139011  
C23      C      0.165730000000     0.892360000000     0.178620000000     0.402329   
C23      C      0.165730000000     0.892360000000     0.678620000000     0.402329   
C24      C      0.796790000000     0.528060000000     0.338160000000     0.0528531  
C24      C      0.796790000000     0.528060000000     0.838160000000     0.0528531  
C25      C      0.099250000000     0.351080000000     0.284360000000    -0.0633274  
C25      C      0.099250000000     0.351080000000     0.784360000000    -0.0633274  
C26      C      0.761210000000     0.841520000000     0.105000000000    -0.0636696  
C26      C      0.761210000000     0.841520000000     0.605000000000    -0.0636696  
C27      C      0.743390000000     0.364340000000     0.459160000000    -0.0626508  
C27      C      0.743390000000     0.364340000000     0.959160000000    -0.0626508  
C28      C      0.831310000000     0.049900000000     0.137690000000     0.0529567  
C28      C      0.831310000000     0.049900000000     0.637690000000     0.0529567  
C29      C      0.241440000000     0.777680000000     0.377140000000    -0.0675958  
C29      C      0.241440000000     0.777680000000     0.877140000000    -0.0675958  
C30      C      0.503070000000     0.942130000000     0.094780000000     0.395837   
C30      C      0.503070000000     0.942130000000     0.594780000000     0.395837   
C31      C      0.225480000000     0.831310000000     0.137690000000     0.130322   
C31      C      0.225480000000     0.831310000000     0.637690000000     0.130322   
C32      C      0.277530000000     0.615390000000     0.381680000000     0.0988511  
C32      C      0.277530000000     0.615390000000     0.881680000000     0.0988511  
C33      C      0.834910000000     0.529020000000     0.362440000000    -0.0554548  
C33      C      0.834910000000     0.529020000000     0.862440000000    -0.0554548  
C34      C      0.752570000000     0.496930000000     0.405220000000     0.0988761  
C34      C      0.752570000000     0.496930000000     0.905220000000     0.0988761  
C35      C      0.761310000000     0.474770000000     0.460340000000    -0.067324   
C35      C      0.761310000000     0.474770000000     0.960340000000    -0.067324   
C36      C      0.885130000000     0.538400000000     0.370440000000     0.0546094  
C36      C      0.885130000000     0.538400000000     0.870440000000     0.0546094  
C37      C      0.238790000000     0.158480000000     0.395000000000    -0.0681769  
C37      C      0.238790000000     0.158480000000     0.895000000000    -0.0681769  
C38      C      0.921840000000     0.715590000000     0.109800000000     0.102878   
C38      C      0.921840000000     0.715590000000     0.609800000000     0.102878   
C39      C      0.297760000000     0.504010000000     0.109800000000    -0.0178852  
C39      C      0.297760000000     0.504010000000     0.609800000000    -0.0178852  
C40      C      0.373450000000     0.473760000000     0.310740000000    -0.0575189  
C40      C      0.373450000000     0.473760000000     0.810740000000    -0.0575189  
C41      C      0.554960000000     0.654450000000     0.381790000000     0.102884   
C41      C      0.554960000000     0.654450000000     0.881790000000     0.102884   
C42      C      0.782420000000     0.813900000000     0.119560000000    -0.0646246  
C42      C      0.782420000000     0.813900000000     0.619560000000    -0.0646246  
C43      C      0.308890000000     0.152760000000     0.432680000000    -0.0918177  
C43      C      0.308890000000     0.152760000000     0.932680000000    -0.0918177  
C44      C      0.531450000000     0.780440000000     0.273640000000     0.393212   
C44      C      0.531450000000     0.780440000000     0.773640000000     0.393212   
C45      C      0.259070000000     0.516410000000     0.063850000000    -0.0683006  
C45      C      0.259070000000     0.516410000000     0.563850000000    -0.0683006  
C46      C      0.293380000000     0.086410000000     0.284420000000    -0.0918124  
C46      C      0.293380000000     0.086410000000     0.784420000000    -0.0918124  
C47      C      0.820480000000     0.572120000000     0.174050000000    -0.0177384  
C47      C      0.820480000000     0.572120000000     0.674050000000    -0.0177384  
C48      C      0.890870000000     0.445040000000     0.118210000000    -0.0682747  
C48      C      0.890870000000     0.445040000000     0.618210000000    -0.0682747  
C49      C      0.293670000000     0.770800000000     0.105600000000     0.0938376  
C49      C      0.293670000000     0.770800000000     0.605600000000     0.0938376  
C50      C      0.660620000000     0.288650000000     0.420470000000    -0.0140603  
C50      C      0.660620000000     0.288650000000     0.920470000000    -0.0140603  
C51      C      0.345550000000     0.791380000000     0.118210000000     0.100921   
C51      C      0.345550000000     0.791380000000     0.618210000000     0.100921   
C52      C      0.706620000000     0.913590000000     0.215580000000    -0.0703665  
C52      C      0.706620000000     0.913590000000     0.715580000000    -0.0703665  
C53      C      0.222320000000     0.487160000000     0.122860000000     0.100947   
C53      C      0.222320000000     0.487160000000     0.622860000000     0.100947   
C54      C      0.202480000000     0.885130000000     0.370440000000     0.108577   
C54      C      0.202480000000     0.885130000000     0.870440000000     0.108577   
C55      C      0.456700000000     0.425220000000     0.119560000000    -0.0626552  
C55      C      0.456700000000     0.425220000000     0.619560000000    -0.0626552  
C56      C      0.889970000000     0.195860000000     0.362440000000    -0.0673298  
C56      C      0.889970000000     0.195860000000     0.862440000000    -0.0673298  
C57      C      0.180320000000     0.552290000000     0.420470000000     0.393199   
C57      C      0.180320000000     0.552290000000     0.920470000000     0.393199   
C58      C      0.858790000000     0.544330000000     0.329610000000    -0.0278422  
C58      C      0.858790000000     0.544330000000     0.829610000000    -0.0278422  
C59      C      0.676770000000     0.864570000000     0.189120000000     0.102893   
C59      C      0.676770000000     0.864570000000     0.689120000000     0.102893   
C60      C      0.525230000000     0.840630000000     0.039660000000    -0.0703876  
C60      C      0.525230000000     0.840630000000     0.539660000000    -0.0703876  
C61      C      0.057570000000     0.767810000000     0.295400000000    -0.0917874  
C61      C      0.057570000000     0.767810000000     0.795400000000    -0.0917874  
C62      C      0.278460000000     0.103560000000     0.419660000000     0.00683275 
C62      C      0.278460000000     0.103560000000     0.919660000000     0.00683275 
C63      C      0.652770000000     0.518320000000     0.176070000000    -0.0141123  
C63      C      0.652770000000     0.518320000000     0.676070000000    -0.0141123  
C64      C      0.810610000000     0.162410000000     0.354320000000    -0.0280542  
C64      C      0.810610000000     0.162410000000     0.854320000000    -0.0280542  
C65      C      0.007060000000     0.451780000000     0.118490000000     0.102884   
C65      C      0.007060000000     0.451780000000     0.618490000000     0.102884   
C66      C      0.186100000000     0.543300000000     0.380440000000    -0.0595617  
C66      C      0.186100000000     0.543300000000     0.880440000000    -0.0595617  
C67      C      0.885110000000     0.141210000000     0.170390000000     0.0986828  
C67      C      0.885110000000     0.141210000000     0.670390000000     0.0986828  
C68      C      0.868630000000     0.611290000000     0.063850000000     0.39657    
C68      C      0.868630000000     0.611290000000     0.563850000000     0.39657    
C69      C      0.516410000000     0.868630000000     0.063850000000    -0.0665335  
C69      C      0.516410000000     0.868630000000     0.563850000000    -0.0665335  
C70      C      0.083720000000     0.366080000000     0.428270000000     0.402296   
C70      C      0.083720000000     0.366080000000     0.928270000000     0.402296   
C71      C      0.800430000000     0.114890000000     0.329610000000     0.402329   
C71      C      0.800430000000     0.114890000000     0.829610000000     0.402329   
C72      C      0.841520000000     0.448790000000     0.105000000000     0.393927   
C72      C      0.841520000000     0.448790000000     0.605000000000     0.393927   
C73      C      0.256610000000     0.635660000000     0.040840000000     0.0989788  
C73      C      0.256610000000     0.635660000000     0.540840000000     0.0989788  
C74      C      0.114870000000     0.461600000000     0.129560000000    -0.0644958  
C74      C      0.114870000000     0.461600000000     0.629560000000    -0.0644958  
C75      C      0.049900000000     0.444070000000     0.137690000000     0.0938537  
C75      C      0.049900000000     0.444070000000     0.637690000000     0.0938537  
C76      C      0.834270000000     0.107640000000     0.321380000000    -0.0665286  
C76      C      0.834270000000     0.107640000000     0.821380000000    -0.0665286  
C77      C      0.444070000000     0.225480000000     0.137690000000    -0.070377   
C77      C      0.444070000000     0.225480000000     0.637690000000    -0.070377   
C78      C      0.109130000000     0.554960000000     0.381790000000    -0.0597211  
C78      C      0.109130000000     0.554960000000     0.881790000000    -0.0597211  
C79      C      0.528060000000     0.879530000000     0.338160000000    -0.0644878  
C79      C      0.528060000000     0.879530000000     0.838160000000    -0.0644878  
C80      C      0.504010000000     0.921840000000     0.109800000000     0.0529553  
C80      C      0.504010000000     0.921840000000     0.609800000000     0.0529553  
C81      C      0.302310000000     0.473710000000     0.271580000000    -0.0626567  
C81      C      0.302310000000     0.473710000000     0.771580000000    -0.0626567  
C82      C      0.984170000000     0.233160000000     0.226360000000     0.0986506  
C82      C      0.984170000000     0.233160000000     0.726360000000     0.0986506  
C83      C      0.135430000000     0.298530000000     0.310880000000     0.395847   
C83      C      0.135430000000     0.298530000000     0.810880000000     0.395847   
C84      C      0.069450000000     0.302310000000     0.271580000000     0.0938381  
C84      C      0.069450000000     0.302310000000     0.771580000000     0.0938381  
C85      C      0.443530000000     0.287400000000     0.067320000000     0.0545401  
C85      C      0.443530000000     0.287400000000     0.567320000000     0.0545401  
C86      C      0.529020000000     0.889970000000     0.362440000000    -0.0918114  
C86      C      0.529020000000     0.889970000000     0.862440000000    -0.0918114  
C87      C      0.514170000000     0.852030000000     0.118320000000     0.130307   
C87      C      0.514170000000     0.852030000000     0.618320000000     0.130307   
C88      C      0.284410000000     0.702240000000     0.390200000000     0.0938155  
C88      C      0.284410000000     0.702240000000     0.890200000000     0.0938155  
C89      C      0.165090000000     0.470980000000     0.137560000000    -0.06451    
C89      C      0.165090000000     0.470980000000     0.637560000000    -0.06451    
C90      C      0.766840000000     0.531450000000     0.273640000000    -0.0554636  
C90      C      0.766840000000     0.531450000000     0.773640000000    -0.0554636  
C91      C      0.715590000000     0.297760000000     0.109800000000     0.00682706 
C91      C      0.715590000000     0.297760000000     0.609800000000     0.00682706 
C92      C      0.177010000000     0.942430000000     0.204600000000     0.00753939 
C92      C      0.177010000000     0.942430000000     0.704600000000     0.00753939 
C93      C      0.451780000000     0.229920000000     0.118490000000    -0.0614732  
C93      C      0.451780000000     0.229920000000     0.618490000000    -0.0614732  
C94      C      0.821250000000     0.520150000000     0.379380000000     0.00757514 
C94      C      0.821250000000     0.520150000000     0.879380000000     0.00757514 
C95      C      0.913590000000     0.724540000000     0.215580000000    -0.0721006  
C95      C      0.913590000000     0.724540000000     0.715580000000    -0.0721006  
C96      C      0.937510000000     0.238610000000     0.379380000000     0.401878   
C96      C      0.937510000000     0.238610000000     0.879380000000     0.401878   
C97      C      0.082470000000     0.559600000000     0.394400000000     0.100819   
C97      C      0.082470000000     0.559600000000     0.894400000000     0.100819   
C98      C      0.772820000000     0.490460000000     0.428270000000     0.0988376  
C98      C      0.772820000000     0.490460000000     0.928270000000     0.0988376  
C99      C      0.208620000000     0.109130000000     0.381790000000     0.0528586  
C99      C      0.208620000000     0.109130000000     0.881790000000     0.0528586  
C100     C      0.722470000000     0.384610000000     0.118320000000    -0.0614895  
C100     C      0.722470000000     0.384610000000     0.618320000000    -0.0614895  
C101     C      0.023400000000     0.758560000000     0.122860000000     0.0989625  
C101     C      0.023400000000     0.758560000000     0.622860000000     0.0989625  
C102     C      0.240850000000     0.069450000000     0.271580000000    -0.070374   
C102     C      0.240850000000     0.069450000000     0.771580000000    -0.070374   
C103     C      0.482430000000     0.293380000000     0.284420000000     0.393946   
C103     C      0.482430000000     0.293380000000     0.784420000000     0.393946   
C104     C      0.110030000000     0.804140000000     0.137560000000    -0.0279475  
C104     C      0.110030000000     0.804140000000     0.637560000000    -0.0279475  
C105     C      0.518320000000     0.699370000000     0.176070000000    -0.0140617  
C105     C      0.518320000000     0.699370000000     0.676070000000    -0.0140617  
C106     C      0.992940000000     0.548220000000     0.381510000000    -0.0626704  
C106     C      0.992940000000     0.548220000000     0.881510000000    -0.0626704  
C107     C      0.976600000000     0.241440000000     0.377140000000     0.0075817  
C107     C      0.976600000000     0.241440000000     0.877140000000     0.0075817  
C108     C      0.473710000000     0.240850000000     0.271580000000    -0.0575329  
C108     C      0.473710000000     0.240850000000     0.771580000000    -0.0575329  
C109     C      0.670980000000     0.488570000000     0.398210000000     0.130447   
C109     C      0.670980000000     0.488570000000     0.898210000000     0.130447   
C110     C      0.247430000000     0.503070000000     0.094780000000    -0.0575136  
C110     C      0.247430000000     0.503070000000     0.594780000000    -0.0575136  
C111     C      0.635660000000     0.825070000000     0.040840000000    -0.0280459  
C111     C      0.635660000000     0.825070000000     0.540840000000    -0.0280459  
C112     C      0.648920000000     0.530530000000     0.215640000000     0.0546169  
C112     C      0.648920000000     0.530530000000     0.715640000000     0.0546169  
C113     C      0.574780000000     0.217580000000     0.380440000000    -0.0665501  
C113     C      0.574780000000     0.217580000000     0.880440000000    -0.0665501  
C114     C      0.813900000000     0.456700000000     0.119560000000     0.0546069  
C114     C      0.813900000000     0.456700000000     0.619560000000     0.0546069  
C115     C      0.845610000000     0.728870000000     0.174020000000     0.393918   
C115     C      0.845610000000     0.728870000000     0.674020000000     0.393918   
C116     C      0.168690000000     0.950100000000     0.362310000000    -0.0665362  
C116     C      0.168690000000     0.950100000000     0.862310000000    -0.0665362  
C117     C      0.152760000000     0.556470000000     0.432680000000    -0.017622   
C117     C      0.152760000000     0.556470000000     0.932680000000    -0.017622   
C118     C      0.767810000000     0.533230000000     0.295400000000     0.0938141  
C118     C      0.767810000000     0.533230000000     0.795400000000     0.0938141  
C119     C      0.900750000000     0.648920000000     0.215640000000     0.398284   
C119     C      0.900750000000     0.648920000000     0.715640000000     0.398284   
C120     C      0.275460000000     0.482430000000     0.284420000000    -0.0554502  
C120     C      0.275460000000     0.482430000000     0.784420000000    -0.0554502  
C121     C      0.692150000000     0.329020000000     0.101790000000     0.393177   
C121     C      0.692150000000     0.329020000000     0.601790000000     0.393177   
C122     C      0.712600000000     0.308890000000     0.432680000000    -0.0671797  
C122     C      0.712600000000     0.308890000000     0.932680000000    -0.0671797  
C123     C      0.544330000000     0.800430000000     0.329610000000     0.0129164  
C123     C      0.544330000000     0.800430000000     0.829610000000     0.0129164  
C124     C      0.490460000000     0.083720000000     0.428270000000     0.396402   
C124     C      0.490460000000     0.083720000000     0.928270000000     0.396402   
C125     C      0.686490000000     0.247430000000     0.094780000000    -0.0718698  
C125     C      0.686490000000     0.247430000000     0.594780000000    -0.0718698  
C126     C      0.825070000000     0.446020000000     0.040840000000    -0.0665443  
C126     C      0.825070000000     0.446020000000     0.540840000000    -0.0665443  
C127     C      0.942430000000     0.232190000000     0.204600000000     0.39391    
C127     C      0.942430000000     0.232190000000     0.704600000000     0.39391    
C128     C      0.471940000000     0.120470000000     0.161840000000     0.130292   
C128     C      0.471940000000     0.120470000000     0.661840000000     0.130292   
C129     C      0.804140000000     0.165090000000     0.137560000000    -0.0595757  
C129     C      0.804140000000     0.165090000000     0.637560000000    -0.0595757  
C130     C      0.144250000000     0.797520000000     0.129560000000    -0.0683118  
C130     C      0.144250000000     0.797520000000     0.629560000000    -0.0683118  
C131     C      0.232190000000     0.466770000000     0.204600000000    -0.0631751  
C131     C      0.232190000000     0.466770000000     0.704600000000    -0.0631751  
C132     C      0.556470000000     0.712600000000     0.432680000000     0.401839   
C132     C      0.556470000000     0.712600000000     0.932680000000     0.401839   
C133     C      0.464880000000     0.165730000000     0.178620000000    -0.0575292  
C133     C      0.464880000000     0.165730000000     0.678620000000    -0.0575292  
C134     C      0.699370000000     0.833820000000     0.176070000000     0.00684642 
C134     C      0.699370000000     0.833820000000     0.676070000000     0.00684642 
C135     C      0.309500000000     0.516380000000     0.078210000000    -0.0575042  
C135     C      0.309500000000     0.516380000000     0.578210000000    -0.0575042  
C136     C      0.248030000000     0.147720000000     0.310740000000     0.395874   
C136     C      0.248030000000     0.147720000000     0.810740000000     0.395874   
C137     C      0.690500000000     0.483620000000     0.421790000000     0.398278   
C137     C      0.690500000000     0.483620000000     0.921790000000     0.398278   
C138     C      0.103560000000     0.560860000000     0.419660000000     0.108413   
C138     C      0.103560000000     0.560860000000     0.919660000000     0.108413   
C139     C      0.572120000000     0.527620000000     0.174050000000    -0.0674384  
C139     C      0.572120000000     0.527620000000     0.674050000000    -0.0674384  
C140     C      0.479850000000     0.062490000000     0.120620000000    -0.0683017  
C140     C      0.479850000000     0.062490000000     0.620620000000    -0.0683017  
C141     C      0.313510000000     0.752570000000     0.405220000000     0.0989781  
C141     C      0.313510000000     0.752570000000     0.905220000000     0.0989781  
C142     C      0.199570000000     0.885110000000     0.170390000000     0.39637    
C142     C      0.199570000000     0.885110000000     0.670390000000     0.39637    
C143     C      0.751970000000     0.852280000000     0.189260000000     0.401868   
C143     C      0.751970000000     0.852280000000     0.689260000000     0.401868   
C144     C      0.555930000000     0.774520000000     0.362310000000    -0.0280269  
C144     C      0.555930000000     0.774520000000     0.862310000000    -0.0280269  
C145     C      0.086410000000     0.275460000000     0.284420000000    -0.0140071  
C145     C      0.086410000000     0.275460000000     0.784420000000    -0.0140071  
C146     C      0.728870000000     0.502430000000     0.174020000000     0.393209   
C146     C      0.728870000000     0.502430000000     0.674020000000     0.393209   
C147     C      0.777680000000     0.512840000000     0.377140000000     0.0528805  
C147     C      0.777680000000     0.512840000000     0.877140000000     0.0528805  
C148     C      0.229920000000     0.785200000000     0.118490000000     0.0938251  
C148     C      0.229920000000     0.785200000000     0.618490000000     0.0938251  
C149     C      0.633920000000     0.227180000000     0.071730000000    -0.0178661  
C149     C      0.633920000000     0.227180000000     0.571730000000    -0.0178661  
C150     C      0.153080000000     0.359960000000     0.421790000000    -0.0624487  
C150     C      0.153080000000     0.359960000000     0.921790000000    -0.0624487  
C151     C      0.701470000000     0.513670000000     0.189120000000    -0.0683126  
C151     C      0.701470000000     0.513670000000     0.689120000000    -0.0683126  
C152     C      0.538400000000     0.855750000000     0.370440000000    -0.059568   
C152     C      0.538400000000     0.855750000000     0.870440000000    -0.059568   
C153     C      0.486330000000     0.323230000000     0.310880000000     0.0988554  
C153     C      0.486330000000     0.323230000000     0.810880000000     0.0988554  
C154     C      0.512840000000     0.976600000000     0.377140000000    -0.0598256  
C154     C      0.512840000000     0.976600000000     0.877140000000    -0.0598256  
C155     C      0.148260000000     0.796790000000     0.338160000000     0.0988524  
C155     C      0.148260000000     0.796790000000     0.838160000000     0.0988524  
C156     C      0.469470000000     0.217640000000     0.284360000000    -0.059556   
C156     C      0.469470000000     0.217640000000     0.784360000000    -0.059556   
C157     C      0.879530000000     0.148260000000     0.338160000000     0.108432   
C157     C      0.879530000000     0.148260000000     0.838160000000     0.108432   
C158     C      0.502430000000     0.619170000000     0.174020000000     0.393906   
C158     C      0.502430000000     0.619170000000     0.674020000000     0.393906   
C159     C      0.530530000000     0.782360000000     0.215640000000     0.402306   
C159     C      0.530530000000     0.782360000000     0.715640000000     0.402306   
C160     C      0.015830000000     0.766840000000     0.273640000000    -0.0814943  
C160     C      0.015830000000     0.766840000000     0.773640000000    -0.0814943  
C161     C      0.466770000000     0.177010000000     0.204600000000     0.100921   
C161     C      0.466770000000     0.177010000000     0.704600000000     0.100921   
C162     C      0.159370000000     0.445910000000     0.460340000000    -0.0673373  
C162     C      0.159370000000     0.445910000000     0.960340000000    -0.0673373  
C163     C      0.107640000000     0.808490000000     0.321380000000     0.00755647 
C163     C      0.107640000000     0.808490000000     0.821380000000     0.00755647 
C164     C      0.615390000000     0.485830000000     0.381680000000     0.402295   
C164     C      0.615390000000     0.485830000000     0.881680000000     0.402295   
C165     C      0.791380000000     0.890870000000     0.118210000000    -0.0614923  
C165     C      0.791380000000     0.890870000000     0.618210000000    -0.0614923  
C166     C      0.339380000000     0.711350000000     0.079530000000     0.108582   
C166     C      0.339380000000     0.711350000000     0.579530000000     0.108582   
C167     C      0.553980000000     0.743390000000     0.459160000000     0.108249   
C167     C      0.553980000000     0.743390000000     0.959160000000     0.108249   
C168     C      0.721540000000     0.896440000000     0.080340000000     0.100849   
C168     C      0.721540000000     0.896440000000     0.580340000000     0.100849   
C169     C      0.351080000000     0.469470000000     0.284360000000    -0.027888   
C169     C      0.351080000000     0.469470000000     0.784360000000    -0.027888   
C170     C      0.619170000000     0.845610000000     0.174020000000     0.396368   
C170     C      0.619170000000     0.845610000000     0.674020000000     0.396368   
C171     C      0.797520000000     0.114870000000     0.129560000000     0.0528756  
C171     C      0.797520000000     0.114870000000     0.629560000000     0.0528756  
C172     C      0.307850000000     0.670980000000     0.398210000000    -0.081489   
C172     C      0.307850000000     0.670980000000     0.898210000000    -0.081489   
C173     C      0.495990000000     0.078160000000     0.390200000000    -0.0721375  
C173     C      0.495990000000     0.078160000000     0.890200000000    -0.0721375  
C174     C      0.388710000000     0.740930000000     0.436150000000    -0.0626453  
C174     C      0.388710000000     0.740930000000     0.936150000000    -0.0626453  
C175     C      0.224020000000     0.179520000000     0.325950000000    -0.0646325  
C175     C      0.224020000000     0.179520000000     0.825950000000    -0.0646325  
C176     C      0.298530000000     0.486330000000     0.310880000000    -0.0631568  
C176     C      0.298530000000     0.486330000000     0.810880000000    -0.0631568  
C177     C      0.833820000000     0.652770000000     0.176070000000     0.00682247 
C177     C      0.833820000000     0.652770000000     0.676070000000     0.00682247 
C178     C      0.323230000000     0.135430000000     0.310880000000    -0.0674451  
C178     C      0.323230000000     0.135430000000     0.810880000000    -0.0674451  
C179     C      0.446020000000     0.256610000000     0.040840000000     0.054539   
C179     C      0.446020000000     0.256610000000     0.540840000000     0.054539   
C180     C      0.474770000000     0.159370000000     0.460340000000     0.00773951 
C180     C      0.474770000000     0.159370000000     0.960340000000     0.00773951 
C181     C      0.917530000000     0.440400000000     0.105600000000    -0.0814692  
C181     C      0.917530000000     0.440400000000     0.605600000000    -0.0814692  
C182     C      0.551210000000     0.631520000000     0.395000000000     0.398303   
C182     C      0.551210000000     0.631520000000     0.895000000000     0.398303   
C183     C      0.078160000000     0.284410000000     0.390200000000     0.401851   
C183     C      0.078160000000     0.284410000000     0.890200000000     0.401851   
C184     C      0.950100000000     0.555930000000     0.362310000000     0.100946   
C184     C      0.950100000000     0.555930000000     0.862310000000     0.100946   
C185     C      0.174930000000     0.553980000000     0.459160000000     0.0938539  
C185     C      0.174930000000     0.553980000000     0.959160000000     0.0938539  
C186     C      0.427880000000     0.472380000000     0.325950000000     0.00757356 
C186     C      0.427880000000     0.472380000000     0.825950000000     0.00757356 
C187     C      0.758560000000     0.222320000000     0.122860000000     0.0986365  
C187     C      0.758560000000     0.222320000000     0.622860000000     0.0986365  
C188     C      0.548220000000     0.770080000000     0.381510000000    -0.0814668  
C188     C      0.548220000000     0.770080000000     0.881510000000    -0.0814668  
C189     C      0.147970000000     0.277530000000     0.381680000000     0.393898   
C189     C      0.147970000000     0.277530000000     0.881680000000     0.393898   
C190     C      0.141210000000     0.455670000000     0.170390000000     0.00758674 
C190     C      0.141210000000     0.455670000000     0.670390000000     0.00758674 
C191     C      0.822990000000     0.057570000000     0.295400000000    -0.0554801  
C191     C      0.822990000000     0.057570000000     0.795400000000    -0.0554801  
C192     C      0.219560000000     0.984170000000     0.226360000000    -0.0917977  
C192     C      0.219560000000     0.984170000000     0.726360000000    -0.0917977  
C193     C      0.509540000000     0.916280000000     0.071730000000     0.397779   
C193     C      0.509540000000     0.916280000000     0.571730000000     0.397779   
C194     C      0.702240000000     0.495990000000     0.390200000000     0.397764   
C194     C      0.702240000000     0.495990000000     0.890200000000     0.397764   
C195     C      0.125440000000     0.307850000000     0.398210000000    -0.0814997  
C195     C      0.125440000000     0.307850000000     0.898210000000    -0.0814997  
C196     C      0.496930000000     0.057870000000     0.405220000000    -0.0177469  
C196     C      0.496930000000     0.057870000000     0.905220000000    -0.0177469  
C197     C      0.511430000000     0.874560000000     0.101790000000    -0.0614965  
C197     C      0.511430000000     0.874560000000     0.601790000000    -0.0614965  
C198     C      0.057870000000     0.313510000000     0.405220000000    -0.0918     
C198     C      0.057870000000     0.313510000000     0.905220000000    -0.0918     
C199     C      0.488570000000     0.125440000000     0.398210000000     0.393174   
C199     C      0.488570000000     0.125440000000     0.898210000000     0.393174   
C200     C      0.440400000000     0.293670000000     0.105600000000    -0.0703741  
C200     C      0.440400000000     0.293670000000     0.605600000000    -0.0703741  
C201     C      0.497570000000     0.380830000000     0.325980000000    -0.0665501  
C201     C      0.497570000000     0.380830000000     0.825980000000    -0.0665501  
C202     C      0.217580000000     0.186100000000     0.380440000000     0.108571   
C202     C      0.217580000000     0.186100000000     0.880440000000     0.108571   
C203     C      0.162410000000     0.898030000000     0.354320000000     0.393934   
C203     C      0.162410000000     0.898030000000     0.854320000000     0.393934   
C204     C      0.238610000000     0.821250000000     0.379380000000    -0.0675684  
C204     C      0.238610000000     0.821250000000     0.879380000000    -0.0675684  
C205     C      0.654450000000     0.208620000000     0.381790000000    -0.0721257  
C205     C      0.654450000000     0.208620000000     0.881790000000    -0.0721257  
C206     C      0.846920000000     0.640040000000     0.078210000000     0.00682354 
C206     C      0.846920000000     0.640040000000     0.578210000000     0.00682354 
C207     C      0.425220000000     0.782420000000     0.119560000000    -0.0721111  
C207     C      0.425220000000     0.782420000000     0.619560000000    -0.0721111  
C208     C      0.626550000000     0.526240000000     0.189260000000    -0.0596924  
C208     C      0.626550000000     0.526240000000     0.689260000000    -0.0596924  
C209     C      0.229200000000     0.082470000000     0.394400000000    -0.0614885  
C209     C      0.229200000000     0.082470000000     0.894400000000    -0.0614885  
C210     C      0.770800000000     0.917530000000     0.105600000000    -0.0814817  
C210     C      0.770800000000     0.917530000000     0.605600000000    -0.0814817  
C211     C      0.761390000000     0.178750000000     0.120620000000     0.100801   
C211     C      0.761390000000     0.178750000000     0.620620000000     0.100801   
C212     C      0.487160000000     0.023400000000     0.122860000000    -0.0141094  
C212     C      0.487160000000     0.023400000000     0.622860000000    -0.0141094  
C213     C      0.364340000000     0.174930000000     0.459160000000    -0.0650126  
C213     C      0.364340000000     0.174930000000     0.959160000000    -0.0650126  
C214     C      0.455670000000     0.199570000000     0.170390000000    -0.0626924  
C214     C      0.455670000000     0.199570000000     0.670390000000    -0.0626924  
C215     C      0.546230000000     0.810610000000     0.354320000000    -0.061484   
C215     C      0.546230000000     0.810610000000     0.854320000000    -0.061484   
C216     C      0.264240000000     0.721540000000     0.080340000000     0.102896   
C216     C      0.264240000000     0.721540000000     0.580340000000     0.102896   
C217     C      0.366080000000     0.772820000000     0.428270000000     0.0129499  
C217     C      0.366080000000     0.772820000000     0.928270000000     0.0129499  
C218     C      0.847240000000     0.443530000000     0.067320000000     0.393208   
C218     C      0.847240000000     0.443530000000     0.567320000000     0.393208   
C219     C      0.483590000000     0.131370000000     0.436150000000    -0.0176398  
C219     C      0.483590000000     0.131370000000     0.936150000000    -0.0176398  
C220     C      0.347230000000     0.481680000000     0.323930000000    -0.0554645  
C220     C      0.347230000000     0.481680000000     0.823930000000    -0.0554645  
C221     C      0.158480000000     0.551210000000     0.395000000000    -0.0721338  
C221     C      0.158480000000     0.551210000000     0.895000000000    -0.0721338  
C222     C      0.203210000000     0.471940000000     0.161840000000    -0.0597301  
C222     C      0.203210000000     0.471940000000     0.661840000000    -0.0597301  
C223     C      0.516380000000     0.846920000000     0.078210000000     0.397766   
C223     C      0.516380000000     0.846920000000     0.578210000000     0.397766   
C224     C      0.837590000000     0.101970000000     0.145680000000     0.10288    
C224     C      0.837590000000     0.101970000000     0.645680000000     0.10288    
C225     C      0.445910000000     0.761310000000     0.460340000000     0.0129352  
C225     C      0.445910000000     0.761310000000     0.960340000000     0.0129352  
C226     C      0.775980000000     0.820480000000     0.174050000000    -0.0633272  
C226     C      0.775980000000     0.820480000000     0.674050000000    -0.0633272  
C227     C      0.520150000000     0.937510000000     0.379380000000     0.393913   
C227     C      0.520150000000     0.937510000000     0.879380000000     0.393913   
C228     C      0.533230000000     0.822990000000     0.295400000000    -0.0615087  
C228     C      0.533230000000     0.822990000000     0.795400000000    -0.0615087  
C229     C      0.483620000000     0.153080000000     0.421790000000    -0.0675724  
C229     C      0.483620000000     0.153080000000     0.921790000000    -0.0675724  
C230     C      0.942130000000     0.686490000000     0.094780000000    -0.0646073  
C230     C      0.942130000000     0.686490000000     0.594780000000    -0.0646073  
C231     C      0.101970000000     0.453770000000     0.145680000000    -0.0665403  
C231     C      0.101970000000     0.453770000000     0.645680000000    -0.0665403  
C232     C      0.380830000000     0.154390000000     0.325980000000    -0.0674255  
C232     C      0.380830000000     0.154390000000     0.825980000000    -0.0674255  
C233     C      0.359960000000     0.690500000000     0.421790000000     0.402306   
C233     C      0.359960000000     0.690500000000     0.921790000000     0.402306   
C234     C      0.892360000000     0.191510000000     0.178620000000     0.0529531  
C234     C      0.892360000000     0.191510000000     0.678620000000     0.0529531  
C235     C      0.470980000000     0.110030000000     0.137560000000    -0.0720975  
C235     C      0.470980000000     0.110030000000     0.637560000000    -0.0720975  
C236     C      0.554090000000     0.238690000000     0.039660000000    -0.0631644  
C236     C      0.554090000000     0.238690000000     0.539660000000    -0.0631644  
C237     C      0.840630000000     0.554090000000     0.039660000000    -0.0814838  
C237     C      0.840630000000     0.554090000000     0.539660000000    -0.0814838  
C238     C      0.898030000000     0.546230000000     0.354320000000    -0.0139438  
C238     C      0.898030000000     0.546230000000     0.854320000000    -0.0139438  
C239     C      0.233160000000     0.468550000000     0.226360000000     0.401885   
C239     C      0.233160000000     0.468550000000     0.726360000000     0.401885   
C240     C      0.147720000000     0.373450000000     0.310740000000    -0.0626853  
C240     C      0.147720000000     0.373450000000     0.810740000000    -0.0626853  
C241     C      0.195860000000     0.834910000000     0.362440000000    -0.0575159  
C241     C      0.195860000000     0.834910000000     0.862440000000    -0.0575159  
C242     C      0.384610000000     0.514170000000     0.118320000000    -0.057536   
C242     C      0.384610000000     0.514170000000     0.618320000000    -0.057536   
C243     C      0.517570000000     0.706620000000     0.215580000000    -0.0703647  
C243     C      0.517570000000     0.706620000000     0.715580000000    -0.0703647  
C244     C      0.217640000000     0.099250000000     0.284360000000     0.00680419 
C244     C      0.217640000000     0.099250000000     0.784360000000     0.00680419 
C245     C      0.559600000000     0.706330000000     0.394400000000     0.0129296  
C245     C      0.559600000000     0.706330000000     0.894400000000     0.0129296  
C246     C      0.271130000000     0.497570000000     0.325980000000    -0.0430283  
C246     C      0.271130000000     0.497570000000     0.825980000000    -0.0430283  
C247     C      0.368480000000     0.761210000000     0.105000000000    -0.0974198  
C247     C      0.368480000000     0.761210000000     0.605000000000    -0.0974198  
C248     C      0.439140000000     0.264240000000     0.080340000000    -0.0449759  
C248     C      0.439140000000     0.264240000000     0.580340000000    -0.0449759  
C249     C      0.166180000000     0.347230000000     0.323930000000    -0.107055   
C249     C      0.166180000000     0.347230000000     0.823930000000    -0.107055   
C250     C      0.735760000000     0.278460000000     0.419660000000    -0.088896   
C250     C      0.735760000000     0.278460000000     0.919660000000    -0.088896   
C251     C      0.329020000000     0.511430000000     0.101790000000    -0.107184   
C251     C      0.329020000000     0.511430000000     0.601790000000    -0.107184   
C252     C      0.526240000000     0.751970000000     0.189260000000    -0.0890346  
C252     C      0.526240000000     0.751970000000     0.689260000000    -0.0890346  
C253     C      0.189390000000     0.837590000000     0.145680000000    -0.0813895  
C253     C      0.189390000000     0.837590000000     0.645680000000    -0.0813895  
C254     C      0.062490000000     0.761390000000     0.120620000000    -0.0888006  
C254     C      0.062490000000     0.761390000000     0.620620000000    -0.0888006  
C255     C      0.214800000000     0.992940000000     0.381510000000    -0.0816497  
C255     C      0.214800000000     0.992940000000     0.881510000000    -0.0816497  
C256     C      0.691110000000     0.847240000000     0.067320000000    -0.0394411  
C256     C      0.691110000000     0.847240000000     0.567320000000    -0.0394411  
C257     C      0.227180000000     0.509540000000     0.071730000000    -0.0431563  
C257     C      0.227180000000     0.509540000000     0.571730000000    -0.0431563  
C258     C      0.473760000000     0.248030000000     0.310740000000    -0.0973461  
C258     C      0.473760000000     0.248030000000     0.810740000000    -0.0973461  
C259     C      0.526290000000     0.759150000000     0.228420000000    -0.290895   
C259     C      0.526290000000     0.759150000000     0.728420000000    -0.290895   
C260     C      0.288650000000     0.180320000000     0.420470000000    -0.0394206  
C260     C      0.288650000000     0.180320000000     0.920470000000    -0.0394206  
C261     C      0.852030000000     0.722470000000     0.118320000000    -0.0899052  
C261     C      0.852030000000     0.722470000000     0.618320000000    -0.0899052  
C262     C      0.780440000000     0.015830000000     0.273640000000    -0.0432638  
C262     C      0.780440000000     0.015830000000     0.773640000000    -0.0432638  
C263     C      0.191510000000     0.464880000000     0.178620000000    -0.0449439  
C263     C      0.191510000000     0.464880000000     0.678620000000    -0.0449439  
C264     C      0.896440000000     0.439140000000     0.080340000000    -0.0973673  
C264     C      0.896440000000     0.439140000000     0.580340000000    -0.0973673  
C265     C      0.874560000000     0.692150000000     0.101790000000    -0.0900702  
C265     C      0.874560000000     0.692150000000     0.601790000000    -0.0900702  
C266     C      0.238690000000     0.525230000000     0.039660000000    -0.290808   
C266     C      0.238690000000     0.525230000000     0.539660000000    -0.290808   
C267     C      0.759150000000     0.930550000000     0.228420000000    -0.0814261  
C267     C      0.759150000000     0.930550000000     0.728420000000    -0.0814261  
C268     C      0.819680000000     0.447710000000     0.079530000000    -0.0899819  
C268     C      0.819680000000     0.447710000000     0.579530000000    -0.0899819  
C269     C      0.611290000000     0.259070000000     0.063850000000    -0.081695   
C269     C      0.611290000000     0.259070000000     0.563850000000    -0.081695   
C270     C      0.154390000000     0.271130000000     0.325980000000    -0.107046   
C270     C      0.154390000000     0.271130000000     0.825980000000    -0.107046   
C271     C      0.852280000000     0.626550000000     0.189260000000    -0.0817065  
C271     C      0.852280000000     0.626550000000     0.689260000000    -0.0817065  
C272     C      0.448790000000     0.368480000000     0.105000000000    -0.0430746  
C272     C      0.448790000000     0.368480000000     0.605000000000    -0.0430746  
C273     C      0.287400000000     0.691110000000     0.067320000000    -0.107145   
C273     C      0.287400000000     0.691110000000     0.567320000000    -0.107145   
C274     C      0.782360000000     0.900750000000     0.215640000000    -0.0899898  
C274     C      0.782360000000     0.900750000000     0.715640000000    -0.0899898  
C275     C      0.631520000000     0.238790000000     0.395000000000    -0.107163   
C275     C      0.631520000000     0.238790000000     0.895000000000    -0.107163   
C276     C      0.543300000000     0.574780000000     0.380440000000    -0.0451267  
C276     C      0.543300000000     0.574780000000     0.880440000000    -0.0451267  
C277     C      0.114890000000     0.858790000000     0.329610000000    -0.0450702  
C277     C      0.114890000000     0.858790000000     0.829610000000    -0.0450702  
C278     C      0.560860000000     0.735760000000     0.419660000000    -0.0816528  
C278     C      0.560860000000     0.735760000000     0.919660000000    -0.0816528  
C279     C      0.740930000000     0.483590000000     0.436150000000    -0.0430766  
C279     C      0.740930000000     0.483590000000     0.936150000000    -0.0430766  
C280     C      0.453770000000     0.189390000000     0.145680000000    -0.290895   
C280     C      0.453770000000     0.189390000000     0.645680000000    -0.290895   
C281     C      0.785200000000     0.007060000000     0.118490000000    -0.0889954  
C281     C      0.785200000000     0.007060000000     0.618490000000    -0.0889954  
C282     C      0.179520000000     0.427880000000     0.325950000000    -0.0430277  
C282     C      0.179520000000     0.427880000000     0.825950000000    -0.0430277  
C283     C      0.916280000000     0.633920000000     0.071730000000    -0.0888749  
C283     C      0.916280000000     0.633920000000     0.571730000000    -0.0888749  
C284     C      0.513670000000     0.676770000000     0.189120000000    -0.0814322  
C284     C      0.513670000000     0.676770000000     0.689120000000    -0.0814322  
C285     C      0.864570000000     0.701470000000     0.189120000000    -0.044971   
C285     C      0.864570000000     0.701470000000     0.689120000000    -0.044971   
C286     C      0.724540000000     0.517570000000     0.215580000000    -0.0814438  
C286     C      0.724540000000     0.517570000000     0.715580000000    -0.0814438  
C287     C      0.300630000000     0.166180000000     0.323930000000    -0.0973452  
C287     C      0.300630000000     0.166180000000     0.823930000000    -0.0973452  
C288     C      0.447710000000     0.339380000000     0.079530000000    -0.089981   
C288     C      0.447710000000     0.339380000000     0.579530000000    -0.089981   
N1       N      0.314310000000     0.836790000000     0.415510000000    -0.0814037  
N1       N      0.314310000000     0.836790000000     0.915510000000    -0.0814037  
N2       N      0.798760000000     0.968230000000     0.119970000000    -0.0900603  
N2       N      0.798760000000     0.968230000000     0.619970000000    -0.0900603  
N3       N      0.575000000000     0.705940000000     0.360680000000    -0.0393858  
N3       N      0.575000000000     0.705940000000     0.860680000000    -0.0393858  
N4       N      0.522550000000     0.949240000000     0.403250000000    -0.290894   
N4       N      0.522550000000     0.949240000000     0.903250000000    -0.290894   
N5       N      0.213600000000     0.493240000000     0.101880000000    -0.0888961  
N5       N      0.213600000000     0.493240000000     0.601880000000    -0.0888961  
N6       N      0.716050000000     0.142740000000     0.096750000000    -0.039368   
N6       N      0.716050000000     0.142740000000     0.596750000000    -0.039368   
N7       N      0.990160000000     0.710520000000     0.101880000000    -0.290796   
N7       N      0.990160000000     0.710520000000     0.601880000000    -0.290796   
N8       N      0.047460000000     0.721400000000     0.289960000000    -0.0816463  
N8       N      0.047460000000     0.721400000000     0.789960000000    -0.0816463  
N9       N      0.009840000000     0.289480000000     0.398120000000    -0.0888096  
N9       N      0.009840000000     0.289480000000     0.898120000000    -0.0888096  
N10      N      0.037500000000     0.429000000000     0.151250000000    -0.0816799  
N10      N      0.037500000000     0.429000000000     0.651250000000    -0.0816799  
N11      N      0.308460000000     0.471600000000     0.235200000000    -0.0432061  
N11      N      0.308460000000     0.471600000000     0.735200000000    -0.0432061  
N12      N      0.005770000000     0.685690000000     0.084490000000    -0.0451347  
N12      N      0.005770000000     0.685690000000     0.584490000000    -0.0451347  
N13      N      0.728290000000     0.201240000000     0.380030000000    -0.0816874  
N13      N      0.728290000000     0.201240000000     0.880030000000    -0.0816874  
N14      N      0.916400000000     0.526100000000     0.390200000000    -0.0899915  
N14      N      0.916400000000     0.526100000000     0.890200000000    -0.0899915  
N15      N      0.691540000000     0.528400000000     0.264800000000    -0.081721   
N15      N      0.691540000000     0.528400000000     0.764800000000    -0.081721   
N16      N      0.209220000000     0.018510000000     0.244510000000    -0.107054   
N16      N      0.209220000000     0.018510000000     0.744510000000    -0.107054   
N17      N      0.685690000000     0.163210000000     0.084490000000    -0.107157   
N17      N      0.685690000000     0.163210000000     0.584490000000    -0.107157   
N18      N      0.015420000000     0.575000000000     0.360680000000    -0.0432288  
N18      N      0.015420000000     0.575000000000     0.860680000000    -0.0432288  
N19      N      0.271710000000     0.798760000000     0.119970000000    -0.290895   
N19      N      0.271710000000     0.798760000000     0.619970000000    -0.290895   
N20      N      0.981490000000     0.720200000000     0.255490000000    -0.290809   
N20      N      0.981490000000     0.720200000000     0.755490000000    -0.290809   
N21      N      0.473900000000     0.136000000000     0.109800000000    -0.0898906  
N21      N      0.473900000000     0.136000000000     0.609800000000    -0.0898906  
N22      N      0.467540000000     0.141480000000     0.210040000000    -0.0814131  
N22      N      0.467540000000     0.141480000000     0.710040000000    -0.0814131  
N23      N      0.529490000000     0.790780000000     0.255490000000    -0.0395126  
N23      N      0.529490000000     0.790780000000     0.755490000000    -0.0395126  
N24      N      0.962500000000     0.571000000000     0.348750000000    -0.0394274  
N24      N      0.962500000000     0.571000000000     0.848750000000    -0.0394274  
N25      N      0.283950000000     0.857260000000     0.403250000000    -0.039437   
N25      N      0.283950000000     0.857260000000     0.903250000000    -0.039437   
N26      N      0.429000000000     0.265000000000     0.151250000000    -0.0974503  
N26      N      0.429000000000     0.265000000000     0.651250000000    -0.0974503  
N27      N      0.516710000000     0.994230000000     0.415510000000    -0.0973656  
N27      N      0.516710000000     0.994230000000     0.915510000000    -0.0973656  
N28      N      0.050760000000     0.716050000000     0.096750000000    -0.0450565  
N28      N      0.050760000000     0.716050000000     0.596750000000    -0.0450565  
N29      N      0.279800000000     0.470510000000     0.244510000000    -0.0972976  
N29      N      0.279800000000     0.470510000000     0.744510000000    -0.0972976  
N30      N      0.477450000000     0.050760000000     0.096750000000    -0.0972975  
N30      N      0.477450000000     0.050760000000     0.596750000000    -0.0972975  
N31      N      0.984580000000     0.425000000000     0.139320000000    -0.0394998  
N31      N      0.984580000000     0.425000000000     0.639320000000    -0.0394998  
N32      N      0.294060000000     0.853640000000     0.139320000000    -0.0449385  
N32      N      0.294060000000     0.853640000000     0.639320000000    -0.0449385  
N33      N      0.571000000000     0.735000000000     0.348750000000    -0.0814548  
N33      N      0.571000000000     0.735000000000     0.848750000000    -0.0814548  
N34      N      0.994230000000     0.314310000000     0.415510000000    -0.081403   
N34      N      0.994230000000     0.314310000000     0.915510000000    -0.081403   
N35      N      0.864000000000     0.254300000000     0.390200000000    -0.107047   
N35      N      0.864000000000     0.254300000000     0.890200000000    -0.107047   
N36      N      0.493240000000     0.990160000000     0.101880000000    -0.088873   
N36      N      0.493240000000     0.990160000000     0.601880000000    -0.088873   
N37      N      0.836790000000     0.516710000000     0.415510000000    -0.290811   
N37      N      0.836790000000     0.516710000000     0.915510000000    -0.290811   
N38      N      0.786400000000     0.506760000000     0.398120000000    -0.432311   
N38      N      0.786400000000     0.506760000000     0.898120000000    -0.432311   
N39      N      0.278600000000     0.467540000000     0.210040000000    -0.444492   
N39      N      0.278600000000     0.467540000000     0.710040000000    -0.444492   
N40      N      0.705940000000     0.146360000000     0.360680000000    -0.432462   
N40      N      0.705940000000     0.146360000000     0.860680000000    -0.432462   
N41      N      0.141480000000     0.952540000000     0.210040000000    -0.444616   
N41      N      0.141480000000     0.952540000000     0.710040000000    -0.444616   
N42      N      0.558820000000     0.728290000000     0.380030000000    -0.430797   
N42      N      0.558820000000     0.728290000000     0.880030000000    -0.430797   
N43      N      0.720200000000     0.529490000000     0.255490000000    -0.429918   
N43      N      0.720200000000     0.529490000000     0.755490000000    -0.429918   
N44      N      0.721400000000     0.532460000000     0.289960000000    -0.435418   
N44      N      0.721400000000     0.532460000000     0.789960000000    -0.435418   
N45      N      0.790780000000     0.981490000000     0.255490000000    -0.43494    
N45      N      0.790780000000     0.981490000000     0.755490000000    -0.43494    
N46      N      0.838060000000     0.001200000000     0.264800000000    -0.43457    
N46      N      0.838060000000     0.001200000000     0.764800000000    -0.43457    
N47      N      0.526100000000     0.864000000000     0.390200000000    -0.435321   
N47      N      0.526100000000     0.864000000000     0.890200000000    -0.435321   
N48      N      0.710520000000     0.213600000000     0.101880000000    -0.4299     
N48      N      0.710520000000     0.213600000000     0.601880000000    -0.4299     
N49      N      0.001200000000     0.691540000000     0.264800000000    -0.429889   
N49      N      0.001200000000     0.691540000000     0.764800000000    -0.429889   
N50      N      0.745700000000     0.083600000000     0.109800000000    -0.439541   
N50      N      0.745700000000     0.083600000000     0.609800000000    -0.439541   
N51      N      0.735000000000     0.126500000000     0.348750000000    -0.430851   
N51      N      0.735000000000     0.126500000000     0.848750000000    -0.430851   
N52      N      0.506760000000     0.009840000000     0.398120000000    -0.443647   
N52      N      0.506760000000     0.009840000000     0.898120000000    -0.443647   
N53      N      0.873500000000     0.037500000000     0.151250000000    -0.445745   
N53      N      0.873500000000     0.037500000000     0.651250000000    -0.445745   
N54      N      0.483290000000     0.005770000000     0.084490000000    -0.432396   
N54      N      0.483290000000     0.005770000000     0.584490000000    -0.432396   
N55      N      0.853640000000     0.984580000000     0.139320000000    -0.444318   
N55      N      0.853640000000     0.984580000000     0.639320000000    -0.444318   
N56      N      0.126500000000     0.962500000000     0.348750000000    -0.432322   
N56      N      0.126500000000     0.962500000000     0.848750000000    -0.432322   
N57      N      0.470510000000     0.209220000000     0.244510000000    -0.439411   
N57      N      0.470510000000     0.209220000000     0.744510000000    -0.439411   
N58      N      0.265000000000     0.873500000000     0.151250000000    -0.445821   
N58      N      0.265000000000     0.873500000000     0.651250000000    -0.445821   
N59      N      0.949240000000     0.283950000000     0.403250000000    -0.434298   
N59      N      0.949240000000     0.283950000000     0.903250000000    -0.434298   
N60      N      0.142740000000     0.477450000000     0.096750000000    -0.430809   
N60      N      0.142740000000     0.477450000000     0.596750000000    -0.430809   
N61      N      0.163210000000     0.483290000000     0.084490000000    -0.437619   
N61      N      0.163210000000     0.483290000000     0.584490000000    -0.437619   
N62      N      0.254300000000     0.916400000000     0.390200000000    -0.444463   
N62      N      0.254300000000     0.916400000000     0.890200000000    -0.444463   
N63      N      0.136000000000     0.745700000000     0.109800000000    -0.430795   
N63      N      0.136000000000     0.745700000000     0.609800000000    -0.430795   
N64      N      0.018510000000     0.279800000000     0.244510000000    -0.431929   
N64      N      0.018510000000     0.279800000000     0.744510000000    -0.431929   
N65      N      0.532460000000     0.858520000000     0.289960000000    -0.43283    
N65      N      0.532460000000     0.858520000000     0.789960000000    -0.43283    
N66      N      0.998800000000     0.308460000000     0.235200000000    -0.436343   
N66      N      0.998800000000     0.308460000000     0.735200000000    -0.436343   
N67      N      0.528400000000     0.838060000000     0.264800000000    -0.443641   
N67      N      0.528400000000     0.838060000000     0.764800000000    -0.443641   
N68      N      0.471600000000     0.161940000000     0.235200000000    -0.436367   
N68      N      0.471600000000     0.161940000000     0.735200000000    -0.436367   
N69      N      0.968230000000     0.441180000000     0.119970000000    -0.436362   
N69      N      0.968230000000     0.441180000000     0.619970000000    -0.436362   
N70      N      0.441180000000     0.271710000000     0.119970000000    -0.430809   
N70      N      0.441180000000     0.271710000000     0.619970000000    -0.430809   
N71      N      0.425000000000     0.294060000000     0.139320000000    -0.443571   
N71      N      0.425000000000     0.294060000000     0.639320000000    -0.443571   
N72      N      0.031770000000     0.558820000000     0.380030000000    -0.435015   
N72      N      0.031770000000     0.558820000000     0.880030000000    -0.435015   
N73      N      0.201240000000     0.031770000000     0.380030000000    -0.445792   
N73      N      0.201240000000     0.031770000000     0.880030000000    -0.445792   
N74      N      0.161940000000     0.998800000000     0.235200000000    -0.443565   
N74      N      0.161940000000     0.998800000000     0.735200000000    -0.443565   
N75      N      0.146360000000     0.015420000000     0.360680000000    -0.439233   
N75      N      0.146360000000     0.015420000000     0.860680000000    -0.439233   
N76      N      0.952540000000     0.278600000000     0.210040000000    -0.435119   
N76      N      0.952540000000     0.278600000000     0.710040000000    -0.435119   
N77      N      0.858520000000     0.047460000000     0.289960000000    -0.432835   
N77      N      0.858520000000     0.047460000000     0.789960000000    -0.432835   
N78      N      0.857260000000     0.522550000000     0.403250000000    -0.435268   
N78      N      0.857260000000     0.522550000000     0.903250000000    -0.435268   
N79      N      0.289480000000     0.786400000000     0.398120000000    -0.432309   
N79      N      0.289480000000     0.786400000000     0.898120000000    -0.432309   
N80      N      0.083600000000     0.473900000000     0.109800000000    -0.436318   
N80      N      0.083600000000     0.473900000000     0.609800000000    -0.436318   
O1       O      0.476170000000     0.205300000000     0.469240000000    -0.444337   
O1       O      0.476170000000     0.205300000000     0.969240000000    -0.444337   
O2       O      0.229980000000     0.538620000000     0.392900000000    -0.435337   
O2       O      0.229980000000     0.538620000000     0.892900000000    -0.435337   
O3       O      0.803910000000     0.467520000000     0.469410000000    -0.439351   
O3       O      0.803910000000     0.467520000000     0.969410000000    -0.439351   
O4       O      0.770020000000     0.461380000000     0.107100000000    -0.43515    
O4       O      0.770020000000     0.461380000000     0.607100000000    -0.43515    
O5       O      0.597170000000     0.483470000000     0.358210000000    -0.444605   
O5       O      0.597170000000     0.483470000000     0.858210000000    -0.444605   
O6       O      0.229350000000     0.506190000000     0.314720000000    -0.444316   
O6       O      0.229350000000     0.506190000000     0.814720000000    -0.444316   
O7       O      0.556970000000     0.789800000000     0.468790000000    -0.443658   
O7       O      0.556970000000     0.789800000000     0.968790000000    -0.443658   
O8       O      0.210200000000     0.619390000000     0.031210000000    -0.444584   
O8       O      0.210200000000     0.619390000000     0.531210000000    -0.444584   
O9       O      0.548030000000     0.719580000000     0.469040000000    -0.429911   
O9       O      0.548030000000     0.719580000000     0.969040000000    -0.429911   
O10      O      0.380610000000     0.147780000000     0.468790000000    -0.435245   
O10      O      0.380610000000     0.147780000000     0.968790000000    -0.435245   
O11      O      0.506190000000     0.400090000000     0.314720000000    -0.445791   
O11      O      0.506190000000     0.400090000000     0.814720000000    -0.445791   
O12      O      0.493810000000     0.599910000000     0.185280000000    -0.432316   
O12      O      0.493810000000     0.599910000000     0.685280000000    -0.432316   
O13      O      0.667650000000     0.485040000000     0.092130000000    -0.443646   
O13      O      0.667650000000     0.485040000000     0.592130000000    -0.443646   
O14      O      0.767050000000     0.402830000000     0.141790000000    -0.43245    
O14      O      0.767050000000     0.402830000000     0.641790000000    -0.43245    
O15      O      0.523620000000     0.746580000000     0.150200000000    -0.445766   
O15      O      0.523620000000     0.746580000000     0.650200000000    -0.445766   
O16      O      0.550350000000     0.172940000000     0.356810000000    -0.445751   
O16      O      0.550350000000     0.172940000000     0.856810000000    -0.445751   
O17      O      0.467520000000     0.134910000000     0.469410000000    -0.444467   
O17      O      0.467520000000     0.134910000000     0.969410000000    -0.444467   
O18      O      0.549630000000     0.532170000000     0.186350000000    -0.434166   
O18      O      0.549630000000     0.532170000000     0.686350000000    -0.434166   
O19      O      0.462310000000     0.733180000000     0.469240000000    -0.43282    
O19      O      0.462310000000     0.733180000000     0.969240000000    -0.43282    
O20      O      0.516610000000     0.699220000000     0.092130000000    -0.444331   
O20      O      0.516610000000     0.699220000000     0.592130000000    -0.444331   
O21      O      0.827060000000     0.836730000000     0.143190000000    -0.445817   
O21      O      0.827060000000     0.836730000000     0.643190000000    -0.445817   
O22      O      0.609950000000     0.781500000000     0.030960000000    -0.434154   
O22      O      0.609950000000     0.781500000000     0.530960000000    -0.434154   
O23      O      0.232950000000     0.597170000000     0.358210000000    -0.435338   
O23      O      0.232950000000     0.597170000000     0.858210000000    -0.435338   
O24      O      0.619390000000     0.852220000000     0.031210000000    -0.432481   
O24      O      0.619390000000     0.852220000000     0.531210000000    -0.432481   
O25      O      0.555820000000     0.247180000000     0.392900000000    -0.429892   
O25      O      0.555820000000     0.247180000000     0.892900000000    -0.429892   
O26      O      0.483470000000     0.119250000000     0.358210000000    -0.430833   
O26      O      0.483470000000     0.119250000000     0.858210000000    -0.430833   
O27      O      0.266820000000     0.523830000000     0.030760000000    -0.443641   
O27      O      0.266820000000     0.523830000000     0.530760000000    -0.443641   
O28      O      0.800060000000     0.707290000000     0.151010000000    -0.430859   
O28      O      0.800060000000     0.707290000000     0.651010000000    -0.430859   
O29      O      0.470430000000     0.530460000000     0.200910000000    -0.43212    
O29      O      0.470430000000     0.530460000000     0.700910000000    -0.43212    
O30      O      0.446180000000     0.476380000000     0.349800000000    -0.432795   
O30      O      0.446180000000     0.476380000000     0.849800000000    -0.432795   
O31      O      0.530460000000     0.931390000000     0.200910000000    -0.43209    
O31      O      0.530460000000     0.931390000000     0.700910000000    -0.43209    
O32      O      0.871360000000     0.470430000000     0.200910000000    -0.431935   
O32      O      0.871360000000     0.470430000000     0.700910000000    -0.431935   
O33      O      0.119250000000     0.232950000000     0.358210000000    -0.436323   
O33      O      0.119250000000     0.232950000000     0.858210000000    -0.436323   
O34      O      0.746580000000     0.776780000000     0.150200000000    -0.435217   
O34      O      0.746580000000     0.776780000000     0.650200000000    -0.435217   
O35      O      0.443030000000     0.210200000000     0.031210000000    -0.432078   
O35      O      0.443030000000     0.210200000000     0.531210000000    -0.432078   
O36      O      0.449650000000     0.827060000000     0.143190000000    -0.432106   
O36      O      0.449650000000     0.827060000000     0.643190000000    -0.432106   
O37      O      0.253420000000     0.223220000000     0.349800000000    -0.429896   
O37      O      0.253420000000     0.223220000000     0.849800000000    -0.429896   
O38      O      0.483390000000     0.300780000000     0.407870000000    -0.42991    
O38      O      0.483390000000     0.300780000000     0.907870000000    -0.42991    
O39      O      0.590960000000     0.485070000000     0.392300000000    -0.431928   
O39      O      0.590960000000     0.485070000000     0.892300000000    -0.431928   
O40      O      0.292710000000     0.498040000000     0.348990000000    -0.443664   
O40      O      0.292710000000     0.498040000000     0.848990000000    -0.443664   
O41      O      0.700470000000     0.409040000000     0.107700000000    -0.436337   
O41      O      0.700470000000     0.409040000000     0.607700000000    -0.436337   
O42      O      0.205300000000     0.462310000000     0.469240000000    -0.444323   
O42      O      0.205300000000     0.462310000000     0.969240000000    -0.444323   
O43      O      0.068610000000     0.128640000000     0.299090000000    -0.44432    
O43      O      0.068610000000     0.128640000000     0.799090000000    -0.44432    
O44      O      0.840530000000     0.549630000000     0.186350000000    -0.432799   
O44      O      0.840530000000     0.549630000000     0.686350000000    -0.432799   
O45      O      0.789800000000     0.380610000000     0.468790000000    -0.434551   
O45      O      0.789800000000     0.380610000000     0.968790000000    -0.434551   
O46      O      0.332350000000     0.514960000000     0.407870000000    -0.444338   
O46      O      0.332350000000     0.514960000000     0.907870000000    -0.444338   
O47      O      0.299530000000     0.590960000000     0.392300000000    -0.434546   
O47      O      0.299530000000     0.590960000000     0.892300000000    -0.434546   
O48      O      0.752820000000     0.770020000000     0.107100000000    -0.43634    
O48      O      0.752820000000     0.770020000000     0.607100000000    -0.43634    
O49      O      0.176930000000     0.159470000000     0.313650000000    -0.439292   
O49      O      0.176930000000     0.159470000000     0.813650000000    -0.439292   
O50      O      0.223220000000     0.446180000000     0.349800000000    -0.444471   
O50      O      0.223220000000     0.446180000000     0.849800000000    -0.444471   
O51      O      0.444180000000     0.752820000000     0.107100000000    -0.435234   
O51      O      0.444180000000     0.752820000000     0.607100000000    -0.435234   
O52      O      0.770650000000     0.493810000000     0.185280000000    -0.434963   
O52      O      0.770650000000     0.493810000000     0.685280000000    -0.434963   
O53      O      0.514930000000     0.806360000000     0.107700000000    -0.43534    
O53      O      0.514930000000     0.806360000000     0.607700000000    -0.43534    
O54      O      0.459320000000     0.449650000000     0.143190000000    -0.43512    
O54      O      0.459320000000     0.449650000000     0.643190000000    -0.43512    
O55      O      0.733180000000     0.476170000000     0.469240000000    -0.434553   
O55      O      0.733180000000     0.476170000000     0.969240000000    -0.434553   
O56      O      0.553820000000     0.523620000000     0.150200000000    -0.429901   
O56      O      0.553820000000     0.523620000000     0.650200000000    -0.429901   
O57      O      0.134910000000     0.471300000000     0.469410000000    -0.430868   
O57      O      0.134910000000     0.471300000000     0.969410000000    -0.430868   
O58      O      0.163270000000     0.540680000000     0.356810000000    -0.432806   
O58      O      0.163270000000     0.540680000000     0.856810000000    -0.432806   
O59      O      0.540680000000     0.550350000000     0.356810000000    -0.439236   
O59      O      0.540680000000     0.550350000000     0.856810000000    -0.439236   
O60      O      0.538620000000     0.555820000000     0.392900000000    -0.444587   
O60      O      0.538620000000     0.555820000000     0.892900000000    -0.444587   
O61      O      0.781500000000     0.451970000000     0.030960000000    -0.434175   
O61      O      0.781500000000     0.451970000000     0.530960000000    -0.434175   
O62      O      0.199940000000     0.292710000000     0.348990000000    -0.436377   
O62      O      0.199940000000     0.292710000000     0.848990000000    -0.436377   
O63      O      0.450370000000     0.467830000000     0.313650000000    -0.432843   
O63      O      0.450370000000     0.467830000000     0.813650000000    -0.432843   
O64      O      0.836730000000     0.459320000000     0.143190000000    -0.445751   
O64      O      0.836730000000     0.459320000000     0.643190000000    -0.445751   
O65      O      0.280420000000     0.609950000000     0.030960000000    -0.444329   
O65      O      0.280420000000     0.609950000000     0.530960000000    -0.444329   
O66      O      0.806360000000     0.700470000000     0.107700000000    -0.439425   
O66      O      0.806360000000     0.700470000000     0.607700000000    -0.439425   
O67      O      0.471300000000     0.803910000000     0.469410000000    -0.439482   
O67      O      0.471300000000     0.803910000000     0.969410000000    -0.439482   
O68      O      0.400090000000     0.123250000000     0.314720000000    -0.434678   
O68      O      0.400090000000     0.123250000000     0.814720000000    -0.434678   
O69      O      0.402830000000     0.516530000000     0.141790000000    -0.432804   
O69      O      0.402830000000     0.516530000000     0.641790000000    -0.432804   
O70      O      0.476380000000     0.253420000000     0.349800000000     1.10788    
O70      O      0.476380000000     0.253420000000     0.849800000000     1.10788    
O71      O      0.516530000000     0.880750000000     0.141790000000     1.10793    
O71      O      0.516530000000     0.880750000000     0.641790000000     1.10793    
O72      O      0.528700000000     0.196090000000     0.030590000000     1.10779    
O72      O      0.528700000000     0.196090000000     0.530590000000     1.10779    
O73      O      0.405270000000     0.199940000000     0.348990000000     0.970154   
O73      O      0.405270000000     0.199940000000     0.848990000000     0.970154   
O74      O      0.196090000000     0.532480000000     0.030590000000     1.10318    
O74      O      0.196090000000     0.532480000000     0.530590000000     1.10318    
O75      O      0.537690000000     0.266820000000     0.030760000000     0.970115   
O75      O      0.537690000000     0.266820000000     0.530760000000     0.970115   
O76      O      0.469540000000     0.068610000000     0.299090000000     1.10794    
O76      O      0.469540000000     0.068610000000     0.799090000000     1.10794    
O77      O      0.193640000000     0.299530000000     0.392300000000     1.10312    
O77      O      0.193640000000     0.299530000000     0.892300000000     1.10312    
O78      O      0.523830000000     0.794700000000     0.030760000000     0.990101   
O78      O      0.523830000000     0.794700000000     0.530760000000     0.990101   
O79      O      0.865090000000     0.528700000000     0.030590000000     1.10312    
O79      O      0.865090000000     0.528700000000     0.530590000000     1.10312    
O80      O      0.599910000000     0.876750000000     0.185280000000     1.10309    
O80      O      0.599910000000     0.876750000000     0.685280000000     1.10309    
O81      O      0.876750000000     0.770650000000     0.185280000000     1.1031     
O81      O      0.876750000000     0.770650000000     0.685280000000     1.1031     
O82      O      0.794700000000     0.537690000000     0.030760000000     0.990149   
O82      O      0.794700000000     0.537690000000     0.530760000000     0.990149   
O83      O      0.776780000000     0.553820000000     0.150200000000     0.990155   
O83      O      0.776780000000     0.553820000000     0.650200000000     0.990155   
O84      O      0.529570000000     0.469540000000     0.299090000000     1.10801    
O84      O      0.529570000000     0.469540000000     0.799090000000     1.10801    
O85      O      0.532170000000     0.823070000000     0.186350000000     1.1078     
O85      O      0.532170000000     0.823070000000     0.686350000000     1.1078     
O86      O      0.823070000000     0.840530000000     0.186350000000     0.990096   
O86      O      0.823070000000     0.840530000000     0.686350000000     0.990096   
O87      O      0.498040000000     0.405270000000     0.348990000000     0.970144   
O87      O      0.498040000000     0.405270000000     0.848990000000     0.970144   
O88      O      0.390050000000     0.218500000000     0.469040000000     1.10308    
O88      O      0.390050000000     0.218500000000     0.969040000000     1.10308    
O89      O      0.159470000000     0.450370000000     0.313650000000     1.10307    
O89      O      0.159470000000     0.450370000000     0.813650000000     1.10307    
O90      O      0.719580000000     0.390050000000     0.469040000000     0.977887   
O90      O      0.719580000000     0.390050000000     0.969040000000     0.977887   
O91      O      0.128640000000     0.529570000000     0.299090000000     1.10808    
O91      O      0.128640000000     0.529570000000     0.799090000000     1.10808    
O92      O      0.300780000000     0.332350000000     0.407870000000     1.10316    
O92      O      0.300780000000     0.332350000000     0.907870000000     1.10316    
O93      O      0.247180000000     0.229980000000     0.392900000000     1.10793    
O93      O      0.247180000000     0.229980000000     0.892900000000     1.10793    
O94      O      0.409040000000     0.514930000000     0.107700000000     0.262603   
O94      O      0.409040000000     0.514930000000     0.607700000000     0.262603   
O95      O      0.852220000000     0.443030000000     0.031210000000     0.0581924  
O95      O      0.852220000000     0.443030000000     0.531210000000     0.0581924  
O96      O      0.147780000000     0.556970000000     0.468790000000     0.164044   
O96      O      0.147780000000     0.556970000000     0.968790000000     0.164044   
O97      O      0.485070000000     0.193640000000     0.392300000000     0.0603259  
O97      O      0.485070000000     0.193640000000     0.892300000000     0.0603259  
O98      O      0.218500000000     0.548030000000     0.469040000000     0.08527    
O98      O      0.218500000000     0.548030000000     0.969040000000     0.08527    
O99      O      0.123250000000     0.229350000000     0.314720000000     0.0911159  
O99      O      0.123250000000     0.229350000000     0.814720000000     0.0911159  
O100     O      0.880750000000     0.767050000000     0.141790000000     0.0782501  
O100     O      0.880750000000     0.767050000000     0.641790000000     0.0782501  
O101     O      0.501960000000     0.594730000000     0.151010000000     0.066008   
O101     O      0.501960000000     0.594730000000     0.651010000000     0.066008   
O102     O      0.514960000000     0.483390000000     0.407870000000     0.0660004  
O102     O      0.514960000000     0.483390000000     0.907870000000     0.0660004  
O103     O      0.461380000000     0.444180000000     0.107100000000     0.0503688  
O103     O      0.461380000000     0.444180000000     0.607100000000     0.0503688  
O104     O      0.451970000000     0.280420000000     0.030960000000     0.163923   
O104     O      0.451970000000     0.280420000000     0.530960000000     0.163923   
O105     O      0.931390000000     0.871360000000     0.200910000000     0.0833206  
O105     O      0.931390000000     0.871360000000     0.700910000000     0.0833206  
O106     O      0.707290000000     0.501960000000     0.151010000000     0.262662   
O106     O      0.707290000000     0.501960000000     0.651010000000     0.262662   
O107     O      0.172940000000     0.163270000000     0.356810000000     0.0847982  
O107     O      0.172940000000     0.163270000000     0.856810000000     0.0847982  
O108     O      0.467830000000     0.176930000000     0.313650000000     0.163922   
O108     O      0.467830000000     0.176930000000     0.813650000000     0.163922   
O109     O      0.485040000000     0.516610000000     0.092130000000     0.0779676  
O109     O      0.485040000000     0.516610000000     0.592130000000     0.0779676  
O110     O      0.699220000000     0.667650000000     0.092130000000     0.0607921  
O110     O      0.699220000000     0.667650000000     0.592130000000     0.0607921  
O111     O      0.532480000000     0.865090000000     0.030590000000     0.0858299  
O111     O      0.532480000000     0.865090000000     0.530590000000     0.0858299  
O112     O      0.594730000000     0.800060000000     0.151010000000     0.262626   
O112     O      0.594730000000     0.800060000000     0.651010000000     0.262626   


