
#======================================================================
# CRYSTAL DATA
#----------------------------------------------------------------------
data_VESTA_phase_1

_chemical_name_common                  'Zn2'
_cell_length_a                         14.295062
_cell_length_b                         10.457439
_cell_length_c                         25.120794
_cell_angle_alpha                      111.455040
_cell_angle_beta                       94.031647
_cell_angle_gamma                      68.544960
_cell_volume                           3244.138219
_space_group_name_H-M_alt              'P 1'
_space_group_IT_number                 1

loop_
_space_group_symop_operation_xyz
   'x, y, z'

loop_
   _atom_site_label
   _atom_site_occupancy
   _atom_site_fract_x
   _atom_site_fract_y
   _atom_site_fract_z
   _atom_site_adp_type
   _atom_site_U_iso_or_equiv
   _atom_site_type_symbol
   Zn1        1.0     0.104167     0.083333     0.011855    Uiso  ? Zn
   Zn2        1.0     0.104167     0.333333     0.011855    Uiso  ? Zn
   Zn3        1.0     0.104167     0.583334     0.011855    Uiso  ? Zn
   Zn4        1.0     0.104167     0.833333     0.011855    Uiso  ? Zn
   Zn5        1.0     0.354167     0.083333     0.011855    Uiso  ? Zn
   Zn6        1.0     0.354167     0.333333     0.011855    Uiso  ? Zn
   Zn7        1.0     0.354167     0.583334     0.011855    Uiso  ? Zn
   Zn8        1.0     0.354167     0.833333     0.011855    Uiso  ? Zn
   Zn9        1.0     0.604167     0.083333     0.011855    Uiso  ? Zn
   Zn10       1.0     0.604167     0.333333     0.011855    Uiso  ? Zn
   Zn11       1.0     0.604167     0.583334     0.011855    Uiso  ? Zn
   Zn12       1.0     0.604167     0.833333     0.011855    Uiso  ? Zn
   Zn13       1.0     0.854167     0.083333     0.011855    Uiso  ? Zn
   Zn14       1.0     0.854167     0.333333     0.011855    Uiso  ? Zn
   Zn15       1.0     0.854167     0.583334     0.011855    Uiso  ? Zn
   Zn16       1.0     0.854167     0.833333     0.011855    Uiso  ? Zn
   Zn17       1.0     0.145833     0.166667     0.130408    Uiso  ? Zn
   Zn18       1.0     0.145833     0.416667     0.130408    Uiso  ? Zn
   Zn19       1.0     0.145833     0.666667     0.130408    Uiso  ? Zn
   Zn20       1.0     0.145833     0.916667     0.130408    Uiso  ? Zn
   Zn21       1.0     0.395833     0.166667     0.130408    Uiso  ? Zn
   Zn22       1.0     0.395833     0.416667     0.130408    Uiso  ? Zn
   Zn23       1.0     0.395833     0.666667     0.130408    Uiso  ? Zn
   Zn24       1.0     0.395833     0.916667     0.130408    Uiso  ? Zn
   Zn25       1.0     0.645833     0.166667     0.130408    Uiso  ? Zn
   Zn26       1.0     0.645833     0.416667     0.130408    Uiso  ? Zn
   Zn27       1.0     0.645833     0.666667     0.130408    Uiso  ? Zn
   Zn28       1.0     0.645833     0.916667     0.130408    Uiso  ? Zn
   Zn29       1.0     0.895833     0.166667     0.130408    Uiso  ? Zn
   Zn30       1.0     0.895833     0.416667     0.130408    Uiso  ? Zn
   Zn31       1.0     0.895833     0.666667     0.130408    Uiso  ? Zn
   Zn32       1.0     0.895833     0.916667     0.130408    Uiso  ? Zn
   Zn33       1.0     0.229167     0.083333     0.082987    Uiso  ? Zn
   Zn34       1.0     0.229167     0.333333     0.082987    Uiso  ? Zn
   Zn35       1.0     0.229167     0.583332     0.082987    Uiso  ? Zn
   Zn36       1.0     0.229167     0.833333     0.082987    Uiso  ? Zn
   Zn37       1.0     0.479167     0.083333     0.082987    Uiso  ? Zn
   Zn38       1.0     0.479167     0.333333     0.082987    Uiso  ? Zn
   Zn39       1.0     0.479167     0.583332     0.082987    Uiso  ? Zn
   Zn40       1.0     0.479167     0.833333     0.082987    Uiso  ? Zn
   Zn41       1.0     0.729167     0.083333     0.082987    Uiso  ? Zn
   Zn42       1.0     0.729167     0.333333     0.082987    Uiso  ? Zn
   Zn43       1.0     0.729167     0.583332     0.082987    Uiso  ? Zn
   Zn44       1.0     0.729167     0.833333     0.082987    Uiso  ? Zn
   Zn45       1.0     0.979167     0.083333     0.082987    Uiso  ? Zn
   Zn46       1.0     0.979167     0.333333     0.082987    Uiso  ? Zn
   Zn47       1.0     0.979167     0.583332     0.082987    Uiso  ? Zn
   Zn48       1.0     0.979167     0.833333     0.082987    Uiso  ? Zn
   Zn49       1.0     0.020833     0.166667     0.059276    Uiso  ? Zn
   Zn50       1.0     0.020833     0.416667     0.059276    Uiso  ? Zn
   Zn51       1.0     0.020833     0.666667     0.059276    Uiso  ? Zn
   Zn52       1.0     0.020833     0.916667     0.059276    Uiso  ? Zn
   Zn53       1.0     0.270833     0.166667     0.059276    Uiso  ? Zn
   Zn54       1.0     0.270833     0.416667     0.059276    Uiso  ? Zn
   Zn55       1.0     0.270833     0.666667     0.059276    Uiso  ? Zn
   Zn56       1.0     0.270833     0.916667     0.059276    Uiso  ? Zn
   Zn57       1.0     0.520833     0.166667     0.059276    Uiso  ? Zn
   Zn58       1.0     0.520833     0.416667     0.059276    Uiso  ? Zn
   Zn59       1.0     0.520833     0.666667     0.059276    Uiso  ? Zn
   Zn60       1.0     0.520833     0.916667     0.059276    Uiso  ? Zn
   Zn61       1.0     0.770833     0.166667     0.059276    Uiso  ? Zn
   Zn62       1.0     0.770833     0.416667     0.059276    Uiso  ? Zn
   Zn63       1.0     0.770833     0.666667     0.059276    Uiso  ? Zn
   Zn64       1.0     0.770833     0.916667     0.059276    Uiso  ? Zn
   C1         1.0     0.388427     0.866962     0.310509    Uiso  ? C
   C2         1.0     0.387548     0.879609     0.367349    Uiso  ? C
   C3         1.0     0.475587     0.774600     0.272966    Uiso  ? C
   C4         1.0     0.473629     0.800586     0.389038    Uiso  ? C
   C5         1.0     0.472643     0.813686     0.447468    Uiso  ? C
   C6         1.0     0.561747     0.695519     0.294803    Uiso  ? C
   C7         1.0     0.560706     0.708338     0.351662    Uiso  ? C
   N1         1.0     0.476534     0.761983     0.216793    Uiso  ? N
   N2         1.0     0.471834     0.824405     0.495376    Uiso  ? N
   H1         1.0     0.321008     0.929054     0.294483    Uiso  ? H
   H2         1.0     0.319643     0.951408     0.395736    Uiso  ? H
   H3         1.0     0.415194     0.818394     0.201017    Uiso  ? H
   H4         1.0     0.629918     0.623498     0.266487    Uiso  ? H
   H5         1.0     0.627866     0.646510     0.367798    Uiso  ? H
   H6         1.0     0.538666     0.696257     0.189823    Uiso  ? H
