data_[CoreMOF]QAVPIO_clean

_audit_creation_method RASPA-1.0
_audit_creation_date 2025-1-26
_audit_author_name ''

_cell_length_a    30.5514
_cell_length_b    37.0112
_cell_length_c    38.22
_cell_angle_alpha 73.82
_cell_angle_beta  84.58
_cell_angle_gamma 74.13
_cell_volume      39915.5

_symmetry_cell_setting          triclinic
_symmetry_space_group_name_Hall 'P 1'
_symmetry_space_group_name_H-M  'P 1'
_symmetry_Int_Tables_number     1

_symmetry_equiv_pos_as_xyz 'x,y,z'

loop_
_atom_site_label
_atom_site_type_symbol
_atom_site_fract_x
_atom_site_fract_y
_atom_site_fract_z
_atom_site_charge
Al1      Al     0.160350000000     0.177550000000     0.051360000000     7.59484    
Al2      Al     0.047466666667     0.008225000000     0.134073333333     6.93327    
Al3      Al     0.130450000000     0.069425000000     0.040066666667     7.41287    
Al4      Al     0.076966666667     0.239600000000     0.289216666667     7.1002     
P1       P      0.145383333333     0.012275000000     0.323953333333     1.79743    
P2       P      0.060183333333     0.025225000000     0.206033333333     1.13839    
P3       P      0.035016666667     0.087675000000     0.078543333333     1.67495    
P4       P      0.088483333333     0.159450000000     0.011946666667     1.67132    
P5       P      0.146450000000     0.235225000000     0.099353333333     1.81727    
O1       O      0.056350000000     0.001550000000     0.179966666667    -1.89703    
O2       O      0.068933333333     0.246150000000     0.243700000000    -1.97424    
O3       O      0.008200000000     0.232250000000     0.131900000000    -2.00123    
O4       O      0.116783333333     0.014625000000     0.292066666667    -2.04976    
O5       O      0.109200000000     0.165600000000     0.043566666667    -2.13937    
O6       O      0.027950000000     0.011400000000     0.310533333333    -2.11817    
O7       O      0.094933333333     0.190125000000     0.309233333333    -2.10961    
O8       O      0.014166666667     0.081825000000     0.046400000000    -2.13995    
O9       O      0.097183333333     0.239225000000     0.112833333333    -2.15276    
O10      O      0.027300000000     0.058175000000     0.114166666667    -2.03035    
O11      O      0.086000000000     0.082150000000     0.071933333333    -2.04541    
O12      O      0.037633333333     0.164075000000     0.019533333333    -2.06723    
O13      O      0.142000000000     0.227300000000     0.020666666667    -2.09472    
O14      O      0.151616666667     0.019850000000     0.068700000000    -2.10178    
O15      O      0.094716666667     0.048025000000     0.194966666667    -0.520556   
O16      O      0.163133333333     0.196975000000     0.088500000000    -2.05071    
O17      O      0.013483333333     0.127925000000     0.084733333333    -1.68923    
O18      O      0.110716666667     0.119575000000     0.005066666667    -1.59632    
O19      O      0.127050000000     0.050850000000     0.001400000000    -1.9059     
O20      O      0.011800000000     0.055100000000     0.207200000000    -0.430087   
Al1      Al     0.160350000000     0.177550000000     0.384693333333     7.59521    
Al2      Al     0.047466666667     0.008225000000     0.467406666667     6.93339    
Al3      Al     0.130450000000     0.069425000000     0.373400000000     7.41353    
Al4      Al     0.076966666667     0.239600000000     0.622550000000     7.10032    
P1       P      0.145383333333     0.012275000000     0.657286666667     1.79746    
P2       P      0.060183333333     0.025225000000     0.539366666667     1.13841    
P3       P      0.035016666667     0.087675000000     0.411876666667     1.67506    
P4       P      0.088483333333     0.159450000000     0.345280000000     1.66963    
P5       P      0.146450000000     0.235225000000     0.432686666667     1.81733    
O1       O      0.056350000000     0.001550000000     0.513300000000    -1.89703    
O2       O      0.068933333333     0.246150000000     0.577033333333    -1.97425    
O3       O      0.008200000000     0.232250000000     0.465233333333    -2.00125    
O4       O      0.116783333333     0.014625000000     0.625400000000    -2.04976    
O5       O      0.109200000000     0.165600000000     0.376900000000    -2.13949    
O6       O      0.027950000000     0.011400000000     0.643866666667    -2.11817    
O7       O      0.094933333333     0.190125000000     0.642566666667    -2.10962    
O8       O      0.014166666667     0.081825000000     0.379733333333    -2.14039    
O9       O      0.097183333333     0.239225000000     0.446166666667    -2.15282    
O10      O      0.027300000000     0.058175000000     0.447500000000    -2.03039    
O11      O      0.086000000000     0.082150000000     0.405266666667    -2.04555    
O12      O      0.037633333333     0.164075000000     0.352866666667    -2.06787    
O13      O      0.142000000000     0.227300000000     0.354000000000    -2.09726    
O14      O      0.151616666667     0.019850000000     0.402033333333    -2.10212    
O15      O      0.094716666667     0.048025000000     0.528300000000    -0.520536   
O16      O      0.163133333333     0.196975000000     0.421833333333    -2.05083    
O17      O      0.013483333333     0.127925000000     0.418066666667    -1.68929    
O18      O      0.110716666667     0.119575000000     0.338400000000    -1.597      
O19      O      0.127050000000     0.050850000000     0.334733333333    -1.9085     
O20      O      0.011800000000     0.055100000000     0.540533333333    -0.430065   
Al1      Al     0.160350000000     0.177550000000     0.718026666667     7.59529    
Al2      Al     0.047466666667     0.008225000000     0.800740000000     6.93341    
Al3      Al     0.130450000000     0.069425000000     0.706733333333     7.41362    
Al4      Al     0.076966666667     0.239600000000     0.955883333333     7.09698    
P1       P      0.145383333333     0.012275000000     0.990620000000     1.79299    
P2       P      0.060183333333     0.025225000000     0.872700000000     1.13825    
P3       P      0.035016666667     0.087675000000     0.745210000000     1.67507    
P4       P      0.088483333333     0.159450000000     0.678613333333     1.66965    
P5       P      0.146450000000     0.235225000000     0.766020000000     1.81734    
O1       O      0.056350000000     0.001550000000     0.846633333333    -1.89706    
O2       O      0.068933333333     0.246150000000     0.910366666667    -1.97365    
O3       O      0.008200000000     0.232250000000     0.798566666667    -2.00127    
O4       O      0.116783333333     0.014625000000     0.958733333333    -2.04906    
O5       O      0.109200000000     0.165600000000     0.710233333333    -2.13951    
O6       O      0.027950000000     0.011400000000     0.977200000000    -2.11796    
O7       O      0.094933333333     0.190125000000     0.975900000000    -2.11105    
O8       O      0.014166666667     0.081825000000     0.713066666667    -2.1404     
O9       O      0.097183333333     0.239225000000     0.779500000000    -2.15282    
O10      O      0.027300000000     0.058175000000     0.780833333333    -2.03039    
O11      O      0.086000000000     0.082150000000     0.738600000000    -2.04556    
O12      O      0.037633333333     0.164075000000     0.686200000000    -2.06788    
O13      O      0.142000000000     0.227300000000     0.687333333333    -2.09727    
O14      O      0.151616666667     0.019850000000     0.735366666667    -2.10211    
O15      O      0.094716666667     0.048025000000     0.861633333333    -0.520577   
O16      O      0.163133333333     0.196975000000     0.755166666667    -2.05085    
O17      O      0.013483333333     0.127925000000     0.751400000000    -1.68931    
O18      O      0.110716666667     0.119575000000     0.671733333333    -1.597      
O19      O      0.127050000000     0.050850000000     0.668066666667    -1.9085     
O20      O      0.011800000000     0.055100000000     0.873866666667    -0.430171   
Al1      Al     0.160350000000     0.427550000000     0.051360000000     7.59492    
Al2      Al     0.047466666667     0.258225000000     0.134073333333     6.93846    
Al3      Al     0.130450000000     0.319425000000     0.040066666667     7.41305    
Al4      Al     0.076966666667     0.489600000000     0.289216666667     7.1002     
P1       P      0.145383333333     0.262275000000     0.323953333333     1.79749    
P2       P      0.060183333333     0.275225000000     0.206033333333     1.13891    
P3       P      0.035016666667     0.337675000000     0.078543333333     1.67521    
P4       P      0.088483333333     0.409450000000     0.011946666667     1.67133    
P5       P      0.146450000000     0.485225000000     0.099353333333     1.81728    
O1       O      0.056350000000     0.251550000000     0.179966666667    -1.89786    
O2       O      0.068933333333     0.496150000000     0.243700000000    -1.97424    
O3       O      0.008200000000     0.482250000000     0.131900000000    -2.00123    
O4       O      0.116783333333     0.264625000000     0.292066666667    -2.04809    
O5       O      0.109200000000     0.415600000000     0.043566666667    -2.13939    
O6       O      0.027950000000     0.261400000000     0.310533333333    -2.1165     
O7       O      0.094933333333     0.440125000000     0.309233333333    -2.10961    
O8       O      0.014166666667     0.331825000000     0.046400000000    -2.14       
O9       O      0.097183333333     0.489225000000     0.112833333333    -2.15276    
O10      O      0.027300000000     0.308175000000     0.114166666667    -2.0314     
O11      O      0.086000000000     0.332150000000     0.071933333333    -2.04548    
O12      O      0.037633333333     0.414075000000     0.019533333333    -2.06724    
O13      O      0.142000000000     0.477300000000     0.020666666667    -2.09473    
O14      O      0.151616666667     0.269850000000     0.068700000000    -2.10136    
O15      O      0.094716666667     0.298025000000     0.194966666667    -0.520536   
O16      O      0.163133333333     0.446975000000     0.088500000000    -2.05073    
O17      O      0.013483333333     0.377925000000     0.084733333333    -1.68928    
O18      O      0.110716666667     0.369575000000     0.005066666667    -1.59634    
O19      O      0.127050000000     0.300850000000     0.001400000000    -1.90585    
O20      O      0.011800000000     0.305100000000     0.207200000000    -0.430021   
Al1      Al     0.160350000000     0.427550000000     0.384693333333     7.59529    
Al2      Al     0.047466666667     0.258225000000     0.467406666667     6.93854    
Al3      Al     0.130450000000     0.319425000000     0.373400000000     7.4137     
Al4      Al     0.076966666667     0.489600000000     0.622550000000     7.10032    
P1       P      0.145383333333     0.262275000000     0.657286666667     1.79751    
P2       P      0.060183333333     0.275225000000     0.539366666667     1.13893    
P3       P      0.035016666667     0.337675000000     0.411876666667     1.67531    
P4       P      0.088483333333     0.409450000000     0.345280000000     1.66964    
P5       P      0.146450000000     0.485225000000     0.432686666667     1.81734    
O1       O      0.056350000000     0.251550000000     0.513300000000    -1.89786    
O2       O      0.068933333333     0.496150000000     0.577033333333    -1.97425    
O3       O      0.008200000000     0.482250000000     0.465233333333    -2.00125    
O4       O      0.116783333333     0.264625000000     0.625400000000    -2.0481     
O5       O      0.109200000000     0.415600000000     0.376900000000    -2.13952    
O6       O      0.027950000000     0.261400000000     0.643866666667    -2.11652    
O7       O      0.094933333333     0.440125000000     0.642566666667    -2.10962    
O8       O      0.014166666667     0.331825000000     0.379733333333    -2.14044    
O9       O      0.097183333333     0.489225000000     0.446166666667    -2.15282    
O10      O      0.027300000000     0.308175000000     0.447500000000    -2.03143    
O11      O      0.086000000000     0.332150000000     0.405266666667    -2.04562    
O12      O      0.037633333333     0.414075000000     0.352866666667    -2.06789    
O13      O      0.142000000000     0.477300000000     0.354000000000    -2.09728    
O14      O      0.151616666667     0.269850000000     0.402033333333    -2.1017     
O15      O      0.094716666667     0.298025000000     0.528300000000    -0.520517   
O16      O      0.163133333333     0.446975000000     0.421833333333    -2.05085    
O17      O      0.013483333333     0.377925000000     0.418066666667    -1.68934    
O18      O      0.110716666667     0.369575000000     0.338400000000    -1.59702    
O19      O      0.127050000000     0.300850000000     0.334733333333    -1.90845    
O20      O      0.011800000000     0.305100000000     0.540533333333    -0.429999   
Al1      Al     0.160350000000     0.427550000000     0.718026666667     7.59537    
Al2      Al     0.047466666667     0.258225000000     0.800740000000     6.93848    
Al3      Al     0.130450000000     0.319425000000     0.706733333333     7.41378    
Al4      Al     0.076966666667     0.489600000000     0.955883333333     7.09697    
P1       P      0.145383333333     0.262275000000     0.990620000000     1.79304    
P2       P      0.060183333333     0.275225000000     0.872700000000     1.13876    
P3       P      0.035016666667     0.337675000000     0.745210000000     1.67532    
P4       P      0.088483333333     0.409450000000     0.678613333333     1.66966    
P5       P      0.146450000000     0.485225000000     0.766020000000     1.81734    
O1       O      0.056350000000     0.251550000000     0.846633333333    -1.89788    
O2       O      0.068933333333     0.496150000000     0.910366666667    -1.97365    
O3       O      0.008200000000     0.482250000000     0.798566666667    -2.00127    
O4       O      0.116783333333     0.264625000000     0.958733333333    -2.04744    
O5       O      0.109200000000     0.415600000000     0.710233333333    -2.13953    
O6       O      0.027950000000     0.261400000000     0.977200000000    -2.11635    
O7       O      0.094933333333     0.440125000000     0.975900000000    -2.11105    
O8       O      0.014166666667     0.331825000000     0.713066666667    -2.14044    
O9       O      0.097183333333     0.489225000000     0.779500000000    -2.15282    
O10      O      0.027300000000     0.308175000000     0.780833333333    -2.03141    
O11      O      0.086000000000     0.332150000000     0.738600000000    -2.04563    
O12      O      0.037633333333     0.414075000000     0.686200000000    -2.0679     
O13      O      0.142000000000     0.477300000000     0.687333333333    -2.09729    
O14      O      0.151616666667     0.269850000000     0.735366666667    -2.10171    
O15      O      0.094716666667     0.298025000000     0.861633333333    -0.520559   
O16      O      0.163133333333     0.446975000000     0.755166666667    -2.05087    
O17      O      0.013483333333     0.377925000000     0.751400000000    -1.68936    
O18      O      0.110716666667     0.369575000000     0.671733333333    -1.59702    
O19      O      0.127050000000     0.300850000000     0.668066666667    -1.90845    
O20      O      0.011800000000     0.305100000000     0.873866666667    -0.430107   
Al1      Al     0.160350000000     0.677550000000     0.051360000000     7.59491    
Al2      Al     0.047466666667     0.508225000000     0.134073333333     6.93845    
Al3      Al     0.130450000000     0.569425000000     0.040066666667     7.41303    
Al4      Al     0.076966666667     0.739600000000     0.289216666667     7.10019    
P1       P      0.145383333333     0.512275000000     0.323953333333     1.79749    
P2       P      0.060183333333     0.525225000000     0.206033333333     1.13891    
P3       P      0.035016666667     0.587675000000     0.078543333333     1.6752     
P4       P      0.088483333333     0.659450000000     0.011946666667     1.67133    
P5       P      0.146450000000     0.735225000000     0.099353333333     1.81728    
O1       O      0.056350000000     0.501550000000     0.179966666667    -1.89786    
O2       O      0.068933333333     0.746150000000     0.243700000000    -1.97424    
O3       O      0.008200000000     0.732250000000     0.131900000000    -2.00124    
O4       O      0.116783333333     0.514625000000     0.292066666667    -2.04809    
O5       O      0.109200000000     0.665600000000     0.043566666667    -2.13939    
O6       O      0.027950000000     0.511400000000     0.310533333333    -2.1165     
O7       O      0.094933333333     0.690125000000     0.309233333333    -2.10961    
O8       O      0.014166666667     0.581825000000     0.046400000000    -2.14       
O9       O      0.097183333333     0.739225000000     0.112833333333    -2.15276    
O10      O      0.027300000000     0.558175000000     0.114166666667    -2.0314     
O11      O      0.086000000000     0.582150000000     0.071933333333    -2.04548    
O12      O      0.037633333333     0.664075000000     0.019533333333    -2.06724    
O13      O      0.142000000000     0.727300000000     0.020666666667    -2.09473    
O14      O      0.151616666667     0.519850000000     0.068700000000    -2.10136    
O15      O      0.094716666667     0.548025000000     0.194966666667    -0.520539   
O16      O      0.163133333333     0.696975000000     0.088500000000    -2.05073    
O17      O      0.013483333333     0.627925000000     0.084733333333    -1.68928    
O18      O      0.110716666667     0.619575000000     0.005066666667    -1.59634    
O19      O      0.127050000000     0.550850000000     0.001400000000    -1.90584    
O20      O      0.011800000000     0.555100000000     0.207200000000    -0.430025   
Al1      Al     0.160350000000     0.677550000000     0.384693333333     7.59527    
Al2      Al     0.047466666667     0.508225000000     0.467406666667     6.93853    
Al3      Al     0.130450000000     0.569425000000     0.373400000000     7.41369    
Al4      Al     0.076966666667     0.739600000000     0.622550000000     7.1003     
P1       P      0.145383333333     0.512275000000     0.657286666667     1.79752    
P2       P      0.060183333333     0.525225000000     0.539366666667     1.13893    
P3       P      0.035016666667     0.587675000000     0.411876666667     1.6753     
P4       P      0.088483333333     0.659450000000     0.345280000000     1.66963    
P5       P      0.146450000000     0.735225000000     0.432686666667     1.81734    
O1       O      0.056350000000     0.501550000000     0.513300000000    -1.89786    
O2       O      0.068933333333     0.746150000000     0.577033333333    -1.97425    
O3       O      0.008200000000     0.732250000000     0.465233333333    -2.00125    
O4       O      0.116783333333     0.514625000000     0.625400000000    -2.0481     
O5       O      0.109200000000     0.665600000000     0.376900000000    -2.13952    
O6       O      0.027950000000     0.511400000000     0.643866666667    -2.11652    
O7       O      0.094933333333     0.690125000000     0.642566666667    -2.10962    
O8       O      0.014166666667     0.581825000000     0.379733333333    -2.14043    
O9       O      0.097183333333     0.739225000000     0.446166666667    -2.15282    
O10      O      0.027300000000     0.558175000000     0.447500000000    -2.03143    
O11      O      0.086000000000     0.582150000000     0.405266666667    -2.04562    
O12      O      0.037633333333     0.664075000000     0.352866666667    -2.06789    
O13      O      0.142000000000     0.727300000000     0.354000000000    -2.09728    
O14      O      0.151616666667     0.519850000000     0.402033333333    -2.1017     
O15      O      0.094716666667     0.548025000000     0.528300000000    -0.52052    
O16      O      0.163133333333     0.696975000000     0.421833333333    -2.05085    
O17      O      0.013483333333     0.627925000000     0.418066666667    -1.68934    
O18      O      0.110716666667     0.619575000000     0.338400000000    -1.59702    
O19      O      0.127050000000     0.550850000000     0.334733333333    -1.90845    
O20      O      0.011800000000     0.555100000000     0.540533333333    -0.430003   
Al1      Al     0.160350000000     0.677550000000     0.718026666667     7.59535    
Al2      Al     0.047466666667     0.508225000000     0.800740000000     6.93847    
Al3      Al     0.130450000000     0.569425000000     0.706733333333     7.41377    
Al4      Al     0.076966666667     0.739600000000     0.955883333333     7.09695    
P1       P      0.145383333333     0.512275000000     0.990620000000     1.79303    
P2       P      0.060183333333     0.525225000000     0.872700000000     1.13876    
P3       P      0.035016666667     0.587675000000     0.745210000000     1.67532    
P4       P      0.088483333333     0.659450000000     0.678613333333     1.66966    
P5       P      0.146450000000     0.735225000000     0.766020000000     1.81734    
O1       O      0.056350000000     0.501550000000     0.846633333333    -1.89788    
O2       O      0.068933333333     0.746150000000     0.910366666667    -1.97365    
O3       O      0.008200000000     0.732250000000     0.798566666667    -2.00127    
O4       O      0.116783333333     0.514625000000     0.958733333333    -2.04744    
O5       O      0.109200000000     0.665600000000     0.710233333333    -2.13953    
O6       O      0.027950000000     0.511400000000     0.977200000000    -2.11635    
O7       O      0.094933333333     0.690125000000     0.975900000000    -2.11106    
O8       O      0.014166666667     0.581825000000     0.713066666667    -2.14044    
O9       O      0.097183333333     0.739225000000     0.779500000000    -2.15282    
O10      O      0.027300000000     0.558175000000     0.780833333333    -2.03141    
O11      O      0.086000000000     0.582150000000     0.738600000000    -2.04563    
O12      O      0.037633333333     0.664075000000     0.686200000000    -2.06789    
O13      O      0.142000000000     0.727300000000     0.687333333333    -2.09729    
O14      O      0.151616666667     0.519850000000     0.735366666667    -2.10171    
O15      O      0.094716666667     0.548025000000     0.861633333333    -0.520562   
O16      O      0.163133333333     0.696975000000     0.755166666667    -2.05087    
O17      O      0.013483333333     0.627925000000     0.751400000000    -1.68936    
O18      O      0.110716666667     0.619575000000     0.671733333333    -1.59702    
O19      O      0.127050000000     0.550850000000     0.668066666667    -1.90845    
O20      O      0.011800000000     0.555100000000     0.873866666667    -0.430112   
Al1      Al     0.160350000000     0.927550000000     0.051360000000     7.5952     
Al2      Al     0.047466666667     0.758225000000     0.134073333333     6.93844    
Al3      Al     0.130450000000     0.819425000000     0.040066666667     7.41311    
Al4      Al     0.076966666667     0.989600000000     0.289216666667     7.10598    
P1       P      0.145383333333     0.762275000000     0.323953333333     1.79749    
P2       P      0.060183333333     0.775225000000     0.206033333333     1.13891    
P3       P      0.035016666667     0.837675000000     0.078543333333     1.67522    
P4       P      0.088483333333     0.909450000000     0.011946666667     1.67162    
P5       P      0.146450000000     0.985225000000     0.099353333333     1.81745    
O1       O      0.056350000000     0.751550000000     0.179966666667    -1.89786    
O2       O      0.068933333333     0.996150000000     0.243700000000    -1.9747     
O3       O      0.008200000000     0.982250000000     0.131900000000    -1.99962    
O4       O      0.116783333333     0.764625000000     0.292066666667    -2.04809    
O5       O      0.109200000000     0.915600000000     0.043566666667    -2.13948    
O6       O      0.027950000000     0.761400000000     0.310533333333    -2.1165     
O7       O      0.094933333333     0.940125000000     0.309233333333    -2.11079    
O8       O      0.014166666667     0.831825000000     0.046400000000    -2.14003    
O9       O      0.097183333333     0.989225000000     0.112833333333    -2.15108    
O10      O      0.027300000000     0.808175000000     0.114166666667    -2.0314     
O11      O      0.086000000000     0.832150000000     0.071933333333    -2.0455     
O12      O      0.037633333333     0.914075000000     0.019533333333    -2.06736    
O13      O      0.142000000000     0.977300000000     0.020666666667    -2.09431    
O14      O      0.151616666667     0.769850000000     0.068700000000    -2.10138    
O15      O      0.094716666667     0.798025000000     0.194966666667    -0.520523   
O16      O      0.163133333333     0.946975000000     0.088500000000    -2.0507     
O17      O      0.013483333333     0.877925000000     0.084733333333    -1.68932    
O18      O      0.110716666667     0.869575000000     0.005066666667    -1.59638    
O19      O      0.127050000000     0.800850000000     0.001400000000    -1.90585    
O20      O      0.011800000000     0.805100000000     0.207200000000    -0.430005   
Al1      Al     0.160350000000     0.927550000000     0.384693333333     7.59557    
Al2      Al     0.047466666667     0.758225000000     0.467406666667     6.93852    
Al3      Al     0.130450000000     0.819425000000     0.373400000000     7.41377    
Al4      Al     0.076966666667     0.989600000000     0.622550000000     7.10605    
P1       P      0.145383333333     0.762275000000     0.657286666667     1.79751    
P2       P      0.060183333333     0.775225000000     0.539366666667     1.13892    
P3       P      0.035016666667     0.837675000000     0.411876666667     1.67532    
P4       P      0.088483333333     0.909450000000     0.345280000000     1.66993    
P5       P      0.146450000000     0.985225000000     0.432686666667     1.81751    
O1       O      0.056350000000     0.751550000000     0.513300000000    -1.89786    
O2       O      0.068933333333     0.996150000000     0.577033333333    -1.97471    
O3       O      0.008200000000     0.982250000000     0.465233333333    -1.99965    
O4       O      0.116783333333     0.764625000000     0.625400000000    -2.0481     
O5       O      0.109200000000     0.915600000000     0.376900000000    -2.13961    
O6       O      0.027950000000     0.761400000000     0.643866666667    -2.11652    
O7       O      0.094933333333     0.940125000000     0.642566666667    -2.11079    
O8       O      0.014166666667     0.831825000000     0.379733333333    -2.14047    
O9       O      0.097183333333     0.989225000000     0.446166666667    -2.15115    
O10      O      0.027300000000     0.808175000000     0.447500000000    -2.03143    
O11      O      0.086000000000     0.832150000000     0.405266666667    -2.04564    
O12      O      0.037633333333     0.914075000000     0.352866666667    -2.06801    
O13      O      0.142000000000     0.977300000000     0.354000000000    -2.09685    
O14      O      0.151616666667     0.769850000000     0.402033333333    -2.10172    
O15      O      0.094716666667     0.798025000000     0.528300000000    -0.520504   
O16      O      0.163133333333     0.946975000000     0.421833333333    -2.05083    
O17      O      0.013483333333     0.877925000000     0.418066666667    -1.68938    
O18      O      0.110716666667     0.869575000000     0.338400000000    -1.59707    
O19      O      0.127050000000     0.800850000000     0.334733333333    -1.90847    
O20      O      0.011800000000     0.805100000000     0.540533333333    -0.429983   
Al1      Al     0.160350000000     0.927550000000     0.718026666667     7.59565    
Al2      Al     0.047466666667     0.758225000000     0.800740000000     6.93846    
Al3      Al     0.130450000000     0.819425000000     0.706733333333     7.41385    
Al4      Al     0.076966666667     0.989600000000     0.955883333333     7.10258    
P1       P      0.145383333333     0.762275000000     0.990620000000     1.79302    
P2       P      0.060183333333     0.775225000000     0.872700000000     1.13875    
P3       P      0.035016666667     0.837675000000     0.745210000000     1.67533    
P4       P      0.088483333333     0.909450000000     0.678613333333     1.66995    
P5       P      0.146450000000     0.985225000000     0.766020000000     1.81752    
O1       O      0.056350000000     0.751550000000     0.846633333333    -1.89788    
O2       O      0.068933333333     0.996150000000     0.910366666667    -1.9741     
O3       O      0.008200000000     0.982250000000     0.798566666667    -1.99969    
O4       O      0.116783333333     0.764625000000     0.958733333333    -2.04743    
O5       O      0.109200000000     0.915600000000     0.710233333333    -2.13962    
O6       O      0.027950000000     0.761400000000     0.977200000000    -2.11635    
O7       O      0.094933333333     0.940125000000     0.975900000000    -2.11221    
O8       O      0.014166666667     0.831825000000     0.713066666667    -2.14048    
O9       O      0.097183333333     0.989225000000     0.779500000000    -2.15117    
O10      O      0.027300000000     0.808175000000     0.780833333333    -2.03141    
O11      O      0.086000000000     0.832150000000     0.738600000000    -2.04565    
O12      O      0.037633333333     0.914075000000     0.686200000000    -2.06801    
O13      O      0.142000000000     0.977300000000     0.687333333333    -2.09687    
O14      O      0.151616666667     0.769850000000     0.735366666667    -2.10173    
O15      O      0.094716666667     0.798025000000     0.861633333333    -0.520546   
O16      O      0.163133333333     0.946975000000     0.755166666667    -2.05085    
O17      O      0.013483333333     0.877925000000     0.751400000000    -1.6894     
O18      O      0.110716666667     0.869575000000     0.671733333333    -1.59707    
O19      O      0.127050000000     0.800850000000     0.668066666667    -1.90847    
O20      O      0.011800000000     0.805100000000     0.873866666667    -0.430092   
Al1      Al     0.327016666667     0.177550000000     0.051360000000     7.59536    
Al2      Al     0.214133333333     0.008225000000     0.134073333333     6.9329     
Al3      Al     0.297116666667     0.069425000000     0.040066666667     7.41353    
Al4      Al     0.243633333333     0.239600000000     0.289216666667     7.10085    
P1       P      0.312050000000     0.012275000000     0.323953333333     1.7975     
P2       P      0.226850000000     0.025225000000     0.206033333333     1.1384     
P3       P      0.201683333333     0.087675000000     0.078543333333     1.67616    
P4       P      0.255150000000     0.159450000000     0.011946666667     1.67233    
P5       P      0.313116666667     0.235225000000     0.099353333333     1.8173     
O1       O      0.223016666667     0.001550000000     0.179966666667    -1.89745    
O2       O      0.235600000000     0.246150000000     0.243700000000    -1.9749     
O3       O      0.174866666667     0.232250000000     0.131900000000    -2.00417    
O4       O      0.283450000000     0.014625000000     0.292066666667    -2.05012    
O5       O      0.275866666667     0.165600000000     0.043566666667    -2.14024    
O6       O      0.194616666667     0.011400000000     0.310533333333    -2.12126    
O7       O      0.261600000000     0.190125000000     0.309233333333    -2.11029    
O8       O      0.180833333333     0.081825000000     0.046400000000    -2.14456    
O9       O      0.263850000000     0.239225000000     0.112833333333    -2.15307    
O10      O      0.193966666667     0.058175000000     0.114166666667    -2.03149    
O11      O      0.252666666667     0.082150000000     0.071933333333    -2.04589    
O12      O      0.204300000000     0.164075000000     0.019533333333    -2.07285    
O13      O      0.308666666667     0.227300000000     0.020666666667    -2.09505    
O14      O      0.318283333333     0.019850000000     0.068700000000    -2.10197    
O15      O      0.261383333333     0.048025000000     0.194966666667    -0.520763   
O16      O      0.329800000000     0.196975000000     0.088500000000    -2.05095    
O17      O      0.180150000000     0.127925000000     0.084733333333    -1.69436    
O18      O      0.277383333333     0.119575000000     0.005066666667    -1.59676    
O19      O      0.293716666667     0.050850000000     0.001400000000    -1.90629    
O20      O      0.178466666667     0.055100000000     0.207200000000    -0.431603   
Al1      Al     0.327016666667     0.177550000000     0.384693333333     7.59572    
Al2      Al     0.214133333333     0.008225000000     0.467406666667     6.93302    
Al3      Al     0.297116666667     0.069425000000     0.373400000000     7.41419    
Al4      Al     0.243633333333     0.239600000000     0.622550000000     7.10097    
P1       P      0.312050000000     0.012275000000     0.657286666667     1.79752    
P2       P      0.226850000000     0.025225000000     0.539366666667     1.13842    
P3       P      0.201683333333     0.087675000000     0.411876666667     1.67626    
P4       P      0.255150000000     0.159450000000     0.345280000000     1.67064    
P5       P      0.313116666667     0.235225000000     0.432686666667     1.81736    
O1       O      0.223016666667     0.001550000000     0.513300000000    -1.89745    
O2       O      0.235600000000     0.246150000000     0.577033333333    -1.97491    
O3       O      0.174866666667     0.232250000000     0.465233333333    -2.00419    
O4       O      0.283450000000     0.014625000000     0.625400000000    -2.05011    
O5       O      0.275866666667     0.165600000000     0.376900000000    -2.14037    
O6       O      0.194616666667     0.011400000000     0.643866666667    -2.12126    
O7       O      0.261600000000     0.190125000000     0.642566666667    -2.1103     
O8       O      0.180833333333     0.081825000000     0.379733333333    -2.145      
O9       O      0.263850000000     0.239225000000     0.446166666667    -2.15313    
O10      O      0.193966666667     0.058175000000     0.447500000000    -2.03153    
O11      O      0.252666666667     0.082150000000     0.405266666667    -2.04604    
O12      O      0.204300000000     0.164075000000     0.352866666667    -2.0735     
O13      O      0.308666666667     0.227300000000     0.354000000000    -2.09759    
O14      O      0.318283333333     0.019850000000     0.402033333333    -2.10231    
O15      O      0.261383333333     0.048025000000     0.528300000000    -0.520743   
O16      O      0.329800000000     0.196975000000     0.421833333333    -2.05107    
O17      O      0.180150000000     0.127925000000     0.418066666667    -1.69442    
O18      O      0.277383333333     0.119575000000     0.338400000000    -1.59745    
O19      O      0.293716666667     0.050850000000     0.334733333333    -1.90888    
O20      O      0.178466666667     0.055100000000     0.540533333333    -0.431581   
Al1      Al     0.327016666667     0.177550000000     0.718026666667     7.5958     
Al2      Al     0.214133333333     0.008225000000     0.800740000000     6.93304    
Al3      Al     0.297116666667     0.069425000000     0.706733333333     7.41428    
Al4      Al     0.243633333333     0.239600000000     0.955883333333     7.09763    
P1       P      0.312050000000     0.012275000000     0.990620000000     1.79305    
P2       P      0.226850000000     0.025225000000     0.872700000000     1.13826    
P3       P      0.201683333333     0.087675000000     0.745210000000     1.67628    
P4       P      0.255150000000     0.159450000000     0.678613333333     1.67066    
P5       P      0.313116666667     0.235225000000     0.766020000000     1.81737    
O1       O      0.223016666667     0.001550000000     0.846633333333    -1.89748    
O2       O      0.235600000000     0.246150000000     0.910366666667    -1.97431    
O3       O      0.174866666667     0.232250000000     0.798566666667    -2.00421    
O4       O      0.283450000000     0.014625000000     0.958733333333    -2.04942    
O5       O      0.275866666667     0.165600000000     0.710233333333    -2.14038    
O6       O      0.194616666667     0.011400000000     0.977200000000    -2.12105    
O7       O      0.261600000000     0.190125000000     0.975900000000    -2.11172    
O8       O      0.180833333333     0.081825000000     0.713066666667    -2.14501    
O9       O      0.263850000000     0.239225000000     0.779500000000    -2.15313    
O10      O      0.193966666667     0.058175000000     0.780833333333    -2.03153    
O11      O      0.252666666667     0.082150000000     0.738600000000    -2.04605    
O12      O      0.204300000000     0.164075000000     0.686200000000    -2.07351    
O13      O      0.308666666667     0.227300000000     0.687333333333    -2.0976     
O14      O      0.318283333333     0.019850000000     0.735366666667    -2.10231    
O15      O      0.261383333333     0.048025000000     0.861633333333    -0.520784   
O16      O      0.329800000000     0.196975000000     0.755166666667    -2.0511     
O17      O      0.180150000000     0.127925000000     0.751400000000    -1.69444    
O18      O      0.277383333333     0.119575000000     0.671733333333    -1.59745    
O19      O      0.293716666667     0.050850000000     0.668066666667    -1.90888    
O20      O      0.178466666667     0.055100000000     0.873866666667    -0.431686   
Al1      Al     0.327016666667     0.427550000000     0.051360000000     7.59544    
Al2      Al     0.214133333333     0.258225000000     0.134073333333     6.93811    
Al3      Al     0.297116666667     0.319425000000     0.040066666667     7.41371    
Al4      Al     0.243633333333     0.489600000000     0.289216666667     7.10086    
P1       P      0.312050000000     0.262275000000     0.323953333333     1.79755    
P2       P      0.226850000000     0.275225000000     0.206033333333     1.13893    
P3       P      0.201683333333     0.337675000000     0.078543333333     1.67641    
P4       P      0.255150000000     0.409450000000     0.011946666667     1.67235    
P5       P      0.313116666667     0.485225000000     0.099353333333     1.8173     
O1       O      0.223016666667     0.251550000000     0.179966666667    -1.89829    
O2       O      0.235600000000     0.496150000000     0.243700000000    -1.9749     
O3       O      0.174866666667     0.482250000000     0.131900000000    -2.00417    
O4       O      0.283450000000     0.264625000000     0.292066666667    -2.04843    
O5       O      0.275866666667     0.415600000000     0.043566666667    -2.14027    
O6       O      0.194616666667     0.261400000000     0.310533333333    -2.1196     
O7       O      0.261600000000     0.440125000000     0.309233333333    -2.11028    
O8       O      0.180833333333     0.331825000000     0.046400000000    -2.14462    
O9       O      0.263850000000     0.489225000000     0.112833333333    -2.15307    
O10      O      0.193966666667     0.308175000000     0.114166666667    -2.03255    
O11      O      0.252666666667     0.332150000000     0.071933333333    -2.04597    
O12      O      0.204300000000     0.414075000000     0.019533333333    -2.07287    
O13      O      0.308666666667     0.477300000000     0.020666666667    -2.09506    
O14      O      0.318283333333     0.269850000000     0.068700000000    -2.10156    
O15      O      0.261383333333     0.298025000000     0.194966666667    -0.520743   
O16      O      0.329800000000     0.446975000000     0.088500000000    -2.05097    
O17      O      0.180150000000     0.377925000000     0.084733333333    -1.69441    
O18      O      0.277383333333     0.369575000000     0.005066666667    -1.59678    
O19      O      0.293716666667     0.300850000000     0.001400000000    -1.90623    
O20      O      0.178466666667     0.305100000000     0.207200000000    -0.431538   
Al1      Al     0.327016666667     0.427550000000     0.384693333333     7.59581    
Al2      Al     0.214133333333     0.258225000000     0.467406666667     6.9382     
Al3      Al     0.297116666667     0.319425000000     0.373400000000     7.41436    
Al4      Al     0.243633333333     0.489600000000     0.622550000000     7.10097    
P1       P      0.312050000000     0.262275000000     0.657286666667     1.79758    
P2       P      0.226850000000     0.275225000000     0.539366666667     1.13895    
P3       P      0.201683333333     0.337675000000     0.411876666667     1.67651    
P4       P      0.255150000000     0.409450000000     0.345280000000     1.67065    
P5       P      0.313116666667     0.485225000000     0.432686666667     1.81736    
O1       O      0.223016666667     0.251550000000     0.513300000000    -1.89829    
O2       O      0.235600000000     0.496150000000     0.577033333333    -1.9749     
O3       O      0.174866666667     0.482250000000     0.465233333333    -2.00419    
O4       O      0.283450000000     0.264625000000     0.625400000000    -2.04844    
O5       O      0.275866666667     0.415600000000     0.376900000000    -2.1404     
O6       O      0.194616666667     0.261400000000     0.643866666667    -2.11961    
O7       O      0.261600000000     0.440125000000     0.642566666667    -2.11029    
O8       O      0.180833333333     0.331825000000     0.379733333333    -2.14506    
O9       O      0.263850000000     0.489225000000     0.446166666667    -2.15313    
O10      O      0.193966666667     0.308175000000     0.447500000000    -2.03258    
O11      O      0.252666666667     0.332150000000     0.405266666667    -2.04611    
O12      O      0.204300000000     0.414075000000     0.352866666667    -2.07352    
O13      O      0.308666666667     0.477300000000     0.354000000000    -2.09761    
O14      O      0.318283333333     0.269850000000     0.402033333333    -2.1019     
O15      O      0.261383333333     0.298025000000     0.528300000000    -0.520724   
O16      O      0.329800000000     0.446975000000     0.421833333333    -2.05109    
O17      O      0.180150000000     0.377925000000     0.418066666667    -1.69447    
O18      O      0.277383333333     0.369575000000     0.338400000000    -1.59746    
O19      O      0.293716666667     0.300850000000     0.334733333333    -1.90883    
O20      O      0.178466666667     0.305100000000     0.540533333333    -0.431517   
Al1      Al     0.327016666667     0.427550000000     0.718026666667     7.59589    
Al2      Al     0.214133333333     0.258225000000     0.800740000000     6.93813    
Al3      Al     0.297116666667     0.319425000000     0.706733333333     7.41444    
Al4      Al     0.243633333333     0.489600000000     0.955883333333     7.09762    
P1       P      0.312050000000     0.262275000000     0.990620000000     1.79311    
P2       P      0.226850000000     0.275225000000     0.872700000000     1.13877    
P3       P      0.201683333333     0.337675000000     0.745210000000     1.67653    
P4       P      0.255150000000     0.409450000000     0.678613333333     1.67067    
P5       P      0.313116666667     0.485225000000     0.766020000000     1.81737    
O1       O      0.223016666667     0.251550000000     0.846633333333    -1.8983     
O2       O      0.235600000000     0.496150000000     0.910366666667    -1.97431    
O3       O      0.174866666667     0.482250000000     0.798566666667    -2.00421    
O4       O      0.283450000000     0.264625000000     0.958733333333    -2.04778    
O5       O      0.275866666667     0.415600000000     0.710233333333    -2.14041    
O6       O      0.194616666667     0.261400000000     0.977200000000    -2.11944    
O7       O      0.261600000000     0.440125000000     0.975900000000    -2.11173    
O8       O      0.180833333333     0.331825000000     0.713066666667    -2.14506    
O9       O      0.263850000000     0.489225000000     0.779500000000    -2.15313    
O10      O      0.193966666667     0.308175000000     0.780833333333    -2.03256    
O11      O      0.252666666667     0.332150000000     0.738600000000    -2.04612    
O12      O      0.204300000000     0.414075000000     0.686200000000    -2.07353    
O13      O      0.308666666667     0.477300000000     0.687333333333    -2.09762    
O14      O      0.318283333333     0.269850000000     0.735366666667    -2.1019     
O15      O      0.261383333333     0.298025000000     0.861633333333    -0.520766   
O16      O      0.329800000000     0.446975000000     0.755166666667    -2.05112    
O17      O      0.180150000000     0.377925000000     0.751400000000    -1.69449    
O18      O      0.277383333333     0.369575000000     0.671733333333    -1.59746    
O19      O      0.293716666667     0.300850000000     0.668066666667    -1.90884    
O20      O      0.178466666667     0.305100000000     0.873866666667    -0.431625   
Al1      Al     0.327016666667     0.677550000000     0.051360000000     7.59542    
Al2      Al     0.214133333333     0.508225000000     0.134073333333     6.93811    
Al3      Al     0.297116666667     0.569425000000     0.040066666667     7.41369    
Al4      Al     0.243633333333     0.739600000000     0.289216666667     7.10084    
P1       P      0.312050000000     0.512275000000     0.323953333333     1.79756    
P2       P      0.226850000000     0.525225000000     0.206033333333     1.13893    
P3       P      0.201683333333     0.587675000000     0.078543333333     1.67641    
P4       P      0.255150000000     0.659450000000     0.011946666667     1.67234    
P5       P      0.313116666667     0.735225000000     0.099353333333     1.81731    
O1       O      0.223016666667     0.501550000000     0.179966666667    -1.89828    
O2       O      0.235600000000     0.746150000000     0.243700000000    -1.9749     
O3       O      0.174866666667     0.732250000000     0.131900000000    -2.00418    
O4       O      0.283450000000     0.514625000000     0.292066666667    -2.04843    
O5       O      0.275866666667     0.665600000000     0.043566666667    -2.14027    
O6       O      0.194616666667     0.511400000000     0.310533333333    -2.1196     
O7       O      0.261600000000     0.690125000000     0.309233333333    -2.11028    
O8       O      0.180833333333     0.581825000000     0.046400000000    -2.14462    
O9       O      0.263850000000     0.739225000000     0.112833333333    -2.15307    
O10      O      0.193966666667     0.558175000000     0.114166666667    -2.03255    
O11      O      0.252666666667     0.582150000000     0.071933333333    -2.04597    
O12      O      0.204300000000     0.664075000000     0.019533333333    -2.07287    
O13      O      0.308666666667     0.727300000000     0.020666666667    -2.09506    
O14      O      0.318283333333     0.519850000000     0.068700000000    -2.10156    
O15      O      0.261383333333     0.548025000000     0.194966666667    -0.520747   
O16      O      0.329800000000     0.696975000000     0.088500000000    -2.05097    
O17      O      0.180150000000     0.627925000000     0.084733333333    -1.69441    
O18      O      0.277383333333     0.619575000000     0.005066666667    -1.59678    
O19      O      0.293716666667     0.550850000000     0.001400000000    -1.90623    
O20      O      0.178466666667     0.555100000000     0.207200000000    -0.431543   
Al1      Al     0.327016666667     0.677550000000     0.384693333333     7.59579    
Al2      Al     0.214133333333     0.508225000000     0.467406666667     6.93819    
Al3      Al     0.297116666667     0.569425000000     0.373400000000     7.41435    
Al4      Al     0.243633333333     0.739600000000     0.622550000000     7.10096    
P1       P      0.312050000000     0.512275000000     0.657286666667     1.79758    
P2       P      0.226850000000     0.525225000000     0.539366666667     1.13894    
P3       P      0.201683333333     0.587675000000     0.411876666667     1.67651    
P4       P      0.255150000000     0.659450000000     0.345280000000     1.67065    
P5       P      0.313116666667     0.735225000000     0.432686666667     1.81737    
O1       O      0.223016666667     0.501550000000     0.513300000000    -1.89828    
O2       O      0.235600000000     0.746150000000     0.577033333333    -1.9749     
O3       O      0.174866666667     0.732250000000     0.465233333333    -2.00419    
O4       O      0.283450000000     0.514625000000     0.625400000000    -2.04845    
O5       O      0.275866666667     0.665600000000     0.376900000000    -2.1404     
O6       O      0.194616666667     0.511400000000     0.643866666667    -2.11961    
O7       O      0.261600000000     0.690125000000     0.642566666667    -2.1103     
O8       O      0.180833333333     0.581825000000     0.379733333333    -2.14506    
O9       O      0.263850000000     0.739225000000     0.446166666667    -2.15314    
O10      O      0.193966666667     0.558175000000     0.447500000000    -2.03258    
O11      O      0.252666666667     0.582150000000     0.405266666667    -2.04611    
O12      O      0.204300000000     0.664075000000     0.352866666667    -2.07352    
O13      O      0.308666666667     0.727300000000     0.354000000000    -2.09761    
O14      O      0.318283333333     0.519850000000     0.402033333333    -2.1019     
O15      O      0.261383333333     0.548025000000     0.528300000000    -0.520727   
O16      O      0.329800000000     0.696975000000     0.421833333333    -2.05109    
O17      O      0.180150000000     0.627925000000     0.418066666667    -1.69447    
O18      O      0.277383333333     0.619575000000     0.338400000000    -1.59746    
O19      O      0.293716666667     0.550850000000     0.334733333333    -1.90884    
O20      O      0.178466666667     0.555100000000     0.540533333333    -0.431521   
Al1      Al     0.327016666667     0.677550000000     0.718026666667     7.59587    
Al2      Al     0.214133333333     0.508225000000     0.800740000000     6.93812    
Al3      Al     0.297116666667     0.569425000000     0.706733333333     7.41443    
Al4      Al     0.243633333333     0.739600000000     0.955883333333     7.0976     
P1       P      0.312050000000     0.512275000000     0.990620000000     1.7931     
P2       P      0.226850000000     0.525225000000     0.872700000000     1.13877    
P3       P      0.201683333333     0.587675000000     0.745210000000     1.67652    
P4       P      0.255150000000     0.659450000000     0.678613333333     1.67067    
P5       P      0.313116666667     0.735225000000     0.766020000000     1.81737    
O1       O      0.223016666667     0.501550000000     0.846633333333    -1.8983     
O2       O      0.235600000000     0.746150000000     0.910366666667    -1.9743     
O3       O      0.174866666667     0.732250000000     0.798566666667    -2.00421    
O4       O      0.283450000000     0.514625000000     0.958733333333    -2.04778    
O5       O      0.275866666667     0.665600000000     0.710233333333    -2.14041    
O6       O      0.194616666667     0.511400000000     0.977200000000    -2.11944    
O7       O      0.261600000000     0.690125000000     0.975900000000    -2.11173    
O8       O      0.180833333333     0.581825000000     0.713066666667    -2.14506    
O9       O      0.263850000000     0.739225000000     0.779500000000    -2.15313    
O10      O      0.193966666667     0.558175000000     0.780833333333    -2.03256    
O11      O      0.252666666667     0.582150000000     0.738600000000    -2.04612    
O12      O      0.204300000000     0.664075000000     0.686200000000    -2.07353    
O13      O      0.308666666667     0.727300000000     0.687333333333    -2.09762    
O14      O      0.318283333333     0.519850000000     0.735366666667    -2.1019     
O15      O      0.261383333333     0.548025000000     0.861633333333    -0.52077    
O16      O      0.329800000000     0.696975000000     0.755166666667    -2.05112    
O17      O      0.180150000000     0.627925000000     0.751400000000    -1.69449    
O18      O      0.277383333333     0.619575000000     0.671733333333    -1.59746    
O19      O      0.293716666667     0.550850000000     0.668066666667    -1.90884    
O20      O      0.178466666667     0.555100000000     0.873866666667    -0.431629   
Al1      Al     0.327016666667     0.927550000000     0.051360000000     7.59572    
Al2      Al     0.214133333333     0.758225000000     0.134073333333     6.9381     
Al3      Al     0.297116666667     0.819425000000     0.040066666667     7.41377    
Al4      Al     0.243633333333     0.989600000000     0.289216666667     7.10666    
P1       P      0.312050000000     0.762275000000     0.323953333333     1.79756    
P2       P      0.226850000000     0.775225000000     0.206033333333     1.13892    
P3       P      0.201683333333     0.837675000000     0.078543333333     1.67642    
P4       P      0.255150000000     0.909450000000     0.011946666667     1.67264    
P5       P      0.313116666667     0.985225000000     0.099353333333     1.81748    
O1       O      0.223016666667     0.751550000000     0.179966666667    -1.89828    
O2       O      0.235600000000     0.996150000000     0.243700000000    -1.97536    
O3       O      0.174866666667     0.982250000000     0.131900000000    -2.00254    
O4       O      0.283450000000     0.764625000000     0.292066666667    -2.04843    
O5       O      0.275866666667     0.915600000000     0.043566666667    -2.14036    
O6       O      0.194616666667     0.761400000000     0.310533333333    -2.1196     
O7       O      0.261600000000     0.940125000000     0.309233333333    -2.11147    
O8       O      0.180833333333     0.831825000000     0.046400000000    -2.14465    
O9       O      0.263850000000     0.989225000000     0.112833333333    -2.15138    
O10      O      0.193966666667     0.808175000000     0.114166666667    -2.03254    
O11      O      0.252666666667     0.832150000000     0.071933333333    -2.04599    
O12      O      0.204300000000     0.914075000000     0.019533333333    -2.07298    
O13      O      0.308666666667     0.977300000000     0.020666666667    -2.09463    
O14      O      0.318283333333     0.769850000000     0.068700000000    -2.10158    
O15      O      0.261383333333     0.798025000000     0.194966666667    -0.52073    
O16      O      0.329800000000     0.946975000000     0.088500000000    -2.05095    
O17      O      0.180150000000     0.877925000000     0.084733333333    -1.69445    
O18      O      0.277383333333     0.869575000000     0.005066666667    -1.59682    
O19      O      0.293716666667     0.800850000000     0.001400000000    -1.90624    
O20      O      0.178466666667     0.805100000000     0.207200000000    -0.43152    
Al1      Al     0.327016666667     0.927550000000     0.384693333333     7.59609    
Al2      Al     0.214133333333     0.758225000000     0.467406666667     6.93818    
Al3      Al     0.297116666667     0.819425000000     0.373400000000     7.41443    
Al4      Al     0.243633333333     0.989600000000     0.622550000000     7.10673    
P1       P      0.312050000000     0.762275000000     0.657286666667     1.79758    
P2       P      0.226850000000     0.775225000000     0.539366666667     1.13894    
P3       P      0.201683333333     0.837675000000     0.411876666667     1.67652    
P4       P      0.255150000000     0.909450000000     0.345280000000     1.67094    
P5       P      0.313116666667     0.985225000000     0.432686666667     1.81754    
O1       O      0.223016666667     0.751550000000     0.513300000000    -1.89828    
O2       O      0.235600000000     0.996150000000     0.577033333333    -1.97537    
O3       O      0.174866666667     0.982250000000     0.465233333333    -2.00257    
O4       O      0.283450000000     0.764625000000     0.625400000000    -2.04844    
O5       O      0.275866666667     0.915600000000     0.376900000000    -2.14049    
O6       O      0.194616666667     0.761400000000     0.643866666667    -2.11961    
O7       O      0.261600000000     0.940125000000     0.642566666667    -2.11147    
O8       O      0.180833333333     0.831825000000     0.379733333333    -2.14509    
O9       O      0.263850000000     0.989225000000     0.446166666667    -2.15145    
O10      O      0.193966666667     0.808175000000     0.447500000000    -2.03257    
O11      O      0.252666666667     0.832150000000     0.405266666667    -2.04613    
O12      O      0.204300000000     0.914075000000     0.352866666667    -2.07363    
O13      O      0.308666666667     0.977300000000     0.354000000000    -2.09718    
O14      O      0.318283333333     0.769850000000     0.402033333333    -2.10192    
O15      O      0.261383333333     0.798025000000     0.528300000000    -0.520711   
O16      O      0.329800000000     0.946975000000     0.421833333333    -2.05107    
O17      O      0.180150000000     0.877925000000     0.418066666667    -1.69451    
O18      O      0.277383333333     0.869575000000     0.338400000000    -1.59751    
O19      O      0.293716666667     0.800850000000     0.334733333333    -1.90885    
O20      O      0.178466666667     0.805100000000     0.540533333333    -0.431498   
Al1      Al     0.327016666667     0.927550000000     0.718026666667     7.59617    
Al2      Al     0.214133333333     0.758225000000     0.800740000000     6.93812    
Al3      Al     0.297116666667     0.819425000000     0.706733333333     7.41451    
Al4      Al     0.243633333333     0.989600000000     0.955883333333     7.10326    
P1       P      0.312050000000     0.762275000000     0.990620000000     1.79309    
P2       P      0.226850000000     0.775225000000     0.872700000000     1.13877    
P3       P      0.201683333333     0.837675000000     0.745210000000     1.67654    
P4       P      0.255150000000     0.909450000000     0.678613333333     1.67096    
P5       P      0.313116666667     0.985225000000     0.766020000000     1.81755    
O1       O      0.223016666667     0.751550000000     0.846633333333    -1.8983     
O2       O      0.235600000000     0.996150000000     0.910366666667    -1.97475    
O3       O      0.174866666667     0.982250000000     0.798566666667    -2.00261    
O4       O      0.283450000000     0.764625000000     0.958733333333    -2.04778    
O5       O      0.275866666667     0.915600000000     0.710233333333    -2.1405     
O6       O      0.194616666667     0.761400000000     0.977200000000    -2.11944    
O7       O      0.261600000000     0.940125000000     0.975900000000    -2.11289    
O8       O      0.180833333333     0.831825000000     0.713066666667    -2.14509    
O9       O      0.263850000000     0.989225000000     0.779500000000    -2.15147    
O10      O      0.193966666667     0.808175000000     0.780833333333    -2.03255    
O11      O      0.252666666667     0.832150000000     0.738600000000    -2.04614    
O12      O      0.204300000000     0.914075000000     0.686200000000    -2.07363    
O13      O      0.308666666667     0.977300000000     0.687333333333    -2.09719    
O14      O      0.318283333333     0.769850000000     0.735366666667    -2.10192    
O15      O      0.261383333333     0.798025000000     0.861633333333    -0.520753   
O16      O      0.329800000000     0.946975000000     0.755166666667    -2.0511     
O17      O      0.180150000000     0.877925000000     0.751400000000    -1.69453    
O18      O      0.277383333333     0.869575000000     0.671733333333    -1.59751    
O19      O      0.293716666667     0.800850000000     0.668066666667    -1.90885    
O20      O      0.178466666667     0.805100000000     0.873866666667    -0.431607   
Al1      Al     0.493683333333     0.177550000000     0.051360000000     7.59545    
Al2      Al     0.380800000000     0.008225000000     0.134073333333     6.93297    
Al3      Al     0.463783333333     0.069425000000     0.040066666667     7.41364    
Al4      Al     0.410300000000     0.239600000000     0.289216666667     7.10094    
P1       P      0.478716666667     0.012275000000     0.323953333333     1.79752    
P2       P      0.393516666667     0.025225000000     0.206033333333     1.13842    
P3       P      0.368350000000     0.087675000000     0.078543333333     1.67622    
P4       P      0.421816666667     0.159450000000     0.011946666667     1.67237    
P5       P      0.479783333333     0.235225000000     0.099353333333     1.81732    
O1       O      0.389683333333     0.001550000000     0.179966666667    -1.89747    
O2       O      0.402266666667     0.246150000000     0.243700000000    -1.97492    
O3       O      0.341533333333     0.232250000000     0.131900000000    -2.00421    
O4       O      0.450116666667     0.014625000000     0.292066666667    -2.05014    
O5       O      0.442533333333     0.165600000000     0.043566666667    -2.14027    
O6       O      0.361283333333     0.011400000000     0.310533333333    -2.1213     
O7       O      0.428266666667     0.190125000000     0.309233333333    -2.11031    
O8       O      0.347500000000     0.081825000000     0.046400000000    -2.14472    
O9       O      0.430516666667     0.239225000000     0.112833333333    -2.15309    
O10      O      0.360633333333     0.058175000000     0.114166666667    -2.03155    
O11      O      0.419333333333     0.082150000000     0.071933333333    -2.04592    
O12      O      0.370966666667     0.164075000000     0.019533333333    -2.07297    
O13      O      0.475333333333     0.227300000000     0.020666666667    -2.09507    
O14      O      0.484950000000     0.019850000000     0.068700000000    -2.10199    
O15      O      0.428050000000     0.048025000000     0.194966666667    -0.520771   
O16      O      0.496466666667     0.196975000000     0.088500000000    -2.05096    
O17      O      0.346816666667     0.127925000000     0.084733333333    -1.69454    
O18      O      0.444050000000     0.119575000000     0.005066666667    -1.59678    
O19      O      0.460383333333     0.050850000000     0.001400000000    -1.90631    
O20      O      0.345133333333     0.055100000000     0.207200000000    -0.431696   
Al1      Al     0.493683333333     0.177550000000     0.384693333333     7.59581    
Al2      Al     0.380800000000     0.008225000000     0.467406666667     6.93309    
Al3      Al     0.463783333333     0.069425000000     0.373400000000     7.4143     
Al4      Al     0.410300000000     0.239600000000     0.622550000000     7.10105    
P1       P      0.478716666667     0.012275000000     0.657286666667     1.79754    
P2       P      0.393516666667     0.025225000000     0.539366666667     1.13844    
P3       P      0.368350000000     0.087675000000     0.411876666667     1.67632    
P4       P      0.421816666667     0.159450000000     0.345280000000     1.67068    
P5       P      0.479783333333     0.235225000000     0.432686666667     1.81738    
O1       O      0.389683333333     0.001550000000     0.513300000000    -1.89747    
O2       O      0.402266666667     0.246150000000     0.577033333333    -1.97493    
O3       O      0.341533333333     0.232250000000     0.465233333333    -2.00423    
O4       O      0.450116666667     0.014625000000     0.625400000000    -2.05014    
O5       O      0.442533333333     0.165600000000     0.376900000000    -2.14039    
O6       O      0.361283333333     0.011400000000     0.643866666667    -2.1213     
O7       O      0.428266666667     0.190125000000     0.642566666667    -2.11032    
O8       O      0.347500000000     0.081825000000     0.379733333333    -2.14516    
O9       O      0.430516666667     0.239225000000     0.446166666667    -2.15315    
O10      O      0.360633333333     0.058175000000     0.447500000000    -2.03158    
O11      O      0.419333333333     0.082150000000     0.405266666667    -2.04606    
O12      O      0.370966666667     0.164075000000     0.352866666667    -2.07361    
O13      O      0.475333333333     0.227300000000     0.354000000000    -2.0976     
O14      O      0.484950000000     0.019850000000     0.402033333333    -2.10233    
O15      O      0.428050000000     0.048025000000     0.528300000000    -0.520751   
O16      O      0.496466666667     0.196975000000     0.421833333333    -2.05108    
O17      O      0.346816666667     0.127925000000     0.418066666667    -1.6946     
O18      O      0.444050000000     0.119575000000     0.338400000000    -1.59747    
O19      O      0.460383333333     0.050850000000     0.334733333333    -1.9089     
O20      O      0.345133333333     0.055100000000     0.540533333333    -0.431674   
Al1      Al     0.493683333333     0.177550000000     0.718026666667     7.59589    
Al2      Al     0.380800000000     0.008225000000     0.800740000000     6.93311    
Al3      Al     0.463783333333     0.069425000000     0.706733333333     7.41438    
Al4      Al     0.410300000000     0.239600000000     0.955883333333     7.09772    
P1       P      0.478716666667     0.012275000000     0.990620000000     1.79308    
P2       P      0.393516666667     0.025225000000     0.872700000000     1.13828    
P3       P      0.368350000000     0.087675000000     0.745210000000     1.67634    
P4       P      0.421816666667     0.159450000000     0.678613333333     1.6707     
P5       P      0.479783333333     0.235225000000     0.766020000000     1.81739    
O1       O      0.389683333333     0.001550000000     0.846633333333    -1.8975     
O2       O      0.402266666667     0.246150000000     0.910366666667    -1.97433    
O3       O      0.341533333333     0.232250000000     0.798566666667    -2.00425    
O4       O      0.450116666667     0.014625000000     0.958733333333    -2.04944    
O5       O      0.442533333333     0.165600000000     0.710233333333    -2.14041    
O6       O      0.361283333333     0.011400000000     0.977200000000    -2.12109    
O7       O      0.428266666667     0.190125000000     0.975900000000    -2.11174    
O8       O      0.347500000000     0.081825000000     0.713066666667    -2.14516    
O9       O      0.430516666667     0.239225000000     0.779500000000    -2.15314    
O10      O      0.360633333333     0.058175000000     0.780833333333    -2.03158    
O11      O      0.419333333333     0.082150000000     0.738600000000    -2.04607    
O12      O      0.370966666667     0.164075000000     0.686200000000    -2.07362    
O13      O      0.475333333333     0.227300000000     0.687333333333    -2.09762    
O14      O      0.484950000000     0.019850000000     0.735366666667    -2.10233    
O15      O      0.428050000000     0.048025000000     0.861633333333    -0.520792   
O16      O      0.496466666667     0.196975000000     0.755166666667    -2.05111    
O17      O      0.346816666667     0.127925000000     0.751400000000    -1.69462    
O18      O      0.444050000000     0.119575000000     0.671733333333    -1.59746    
O19      O      0.460383333333     0.050850000000     0.668066666667    -1.9089     
O20      O      0.345133333333     0.055100000000     0.873866666667    -0.431779   
Al1      Al     0.493683333333     0.427550000000     0.051360000000     7.59553    
Al2      Al     0.380800000000     0.258225000000     0.134073333333     6.9382     
Al3      Al     0.463783333333     0.319425000000     0.040066666667     7.41381    
Al4      Al     0.410300000000     0.489600000000     0.289216666667     7.10094    
P1       P      0.478716666667     0.262275000000     0.323953333333     1.79757    
P2       P      0.393516666667     0.275225000000     0.206033333333     1.13895    
P3       P      0.368350000000     0.337675000000     0.078543333333     1.67647    
P4       P      0.421816666667     0.409450000000     0.011946666667     1.67239    
P5       P      0.479783333333     0.485225000000     0.099353333333     1.81733    
O1       O      0.389683333333     0.251550000000     0.179966666667    -1.89831    
O2       O      0.402266666667     0.496150000000     0.243700000000    -1.97492    
O3       O      0.341533333333     0.482250000000     0.131900000000    -2.00421    
O4       O      0.450116666667     0.264625000000     0.292066666667    -2.04845    
O5       O      0.442533333333     0.415600000000     0.043566666667    -2.1403     
O6       O      0.361283333333     0.261400000000     0.310533333333    -2.11963    
O7       O      0.428266666667     0.440125000000     0.309233333333    -2.1103     
O8       O      0.347500000000     0.331825000000     0.046400000000    -2.14478    
O9       O      0.430516666667     0.489225000000     0.112833333333    -2.15309    
O10      O      0.360633333333     0.308175000000     0.114166666667    -2.03261    
O11      O      0.419333333333     0.332150000000     0.071933333333    -2.04599    
O12      O      0.370966666667     0.414075000000     0.019533333333    -2.07299    
O13      O      0.475333333333     0.477300000000     0.020666666667    -2.09508    
O14      O      0.484950000000     0.269850000000     0.068700000000    -2.10158    
O15      O      0.428050000000     0.298025000000     0.194966666667    -0.520752   
O16      O      0.496466666667     0.446975000000     0.088500000000    -2.05098    
O17      O      0.346816666667     0.377925000000     0.084733333333    -1.69459    
O18      O      0.444050000000     0.369575000000     0.005066666667    -1.5968     
O19      O      0.460383333333     0.300850000000     0.001400000000    -1.90625    
O20      O      0.345133333333     0.305100000000     0.207200000000    -0.431632   
Al1      Al     0.493683333333     0.427550000000     0.384693333333     7.5959     
Al2      Al     0.380800000000     0.258225000000     0.467406666667     6.93828    
Al3      Al     0.463783333333     0.319425000000     0.373400000000     7.41447    
Al4      Al     0.410300000000     0.489600000000     0.622550000000     7.10106    
P1       P      0.478716666667     0.262275000000     0.657286666667     1.7976     
P2       P      0.393516666667     0.275225000000     0.539366666667     1.13897    
P3       P      0.368350000000     0.337675000000     0.411876666667     1.67657    
P4       P      0.421816666667     0.409450000000     0.345280000000     1.67069    
P5       P      0.479783333333     0.485225000000     0.432686666667     1.81739    
O1       O      0.389683333333     0.251550000000     0.513300000000    -1.89831    
O2       O      0.402266666667     0.496150000000     0.577033333333    -1.97493    
O3       O      0.341533333333     0.482250000000     0.465233333333    -2.00423    
O4       O      0.450116666667     0.264625000000     0.625400000000    -2.04846    
O5       O      0.442533333333     0.415600000000     0.376900000000    -2.14042    
O6       O      0.361283333333     0.261400000000     0.643866666667    -2.11965    
O7       O      0.428266666667     0.440125000000     0.642566666667    -2.11031    
O8       O      0.347500000000     0.331825000000     0.379733333333    -2.14522    
O9       O      0.430516666667     0.489225000000     0.446166666667    -2.15315    
O10      O      0.360633333333     0.308175000000     0.447500000000    -2.03263    
O11      O      0.419333333333     0.332150000000     0.405266666667    -2.04614    
O12      O      0.370966666667     0.414075000000     0.352866666667    -2.07363    
O13      O      0.475333333333     0.477300000000     0.354000000000    -2.09762    
O14      O      0.484950000000     0.269850000000     0.402033333333    -2.10191    
O15      O      0.428050000000     0.298025000000     0.528300000000    -0.520732   
O16      O      0.496466666667     0.446975000000     0.421833333333    -2.05111    
O17      O      0.346816666667     0.377925000000     0.418066666667    -1.69465    
O18      O      0.444050000000     0.369575000000     0.338400000000    -1.59748    
O19      O      0.460383333333     0.300850000000     0.334733333333    -1.90885    
O20      O      0.345133333333     0.305100000000     0.540533333333    -0.43161    
Al1      Al     0.493683333333     0.427550000000     0.718026666667     7.59598    
Al2      Al     0.380800000000     0.258225000000     0.800740000000     6.93822    
Al3      Al     0.463783333333     0.319425000000     0.706733333333     7.41455    
Al4      Al     0.410300000000     0.489600000000     0.955883333333     7.09771    
P1       P      0.478716666667     0.262275000000     0.990620000000     1.79313    
P2       P      0.393516666667     0.275225000000     0.872700000000     1.13879    
P3       P      0.368350000000     0.337675000000     0.745210000000     1.67659    
P4       P      0.421816666667     0.409450000000     0.678613333333     1.67071    
P5       P      0.479783333333     0.485225000000     0.766020000000     1.81739    
O1       O      0.389683333333     0.251550000000     0.846633333333    -1.89833    
O2       O      0.402266666667     0.496150000000     0.910366666667    -1.97433    
O3       O      0.341533333333     0.482250000000     0.798566666667    -2.00425    
O4       O      0.450116666667     0.264625000000     0.958733333333    -2.0478     
O5       O      0.442533333333     0.415600000000     0.710233333333    -2.14043    
O6       O      0.361283333333     0.261400000000     0.977200000000    -2.11947    
O7       O      0.428266666667     0.440125000000     0.975900000000    -2.11175    
O8       O      0.347500000000     0.331825000000     0.713066666667    -2.14522    
O9       O      0.430516666667     0.489225000000     0.779500000000    -2.15314    
O10      O      0.360633333333     0.308175000000     0.780833333333    -2.03262    
O11      O      0.419333333333     0.332150000000     0.738600000000    -2.04614    
O12      O      0.370966666667     0.414075000000     0.686200000000    -2.07364    
O13      O      0.475333333333     0.477300000000     0.687333333333    -2.09763    
O14      O      0.484950000000     0.269850000000     0.735366666667    -2.10192    
O15      O      0.428050000000     0.298025000000     0.861633333333    -0.520774   
O16      O      0.496466666667     0.446975000000     0.755166666667    -2.05113    
O17      O      0.346816666667     0.377925000000     0.751400000000    -1.69467    
O18      O      0.444050000000     0.369575000000     0.671733333333    -1.59748    
O19      O      0.460383333333     0.300850000000     0.668066666667    -1.90886    
O20      O      0.345133333333     0.305100000000     0.873866666667    -0.431718   
Al1      Al     0.493683333333     0.677550000000     0.051360000000     7.59551    
Al2      Al     0.380800000000     0.508225000000     0.134073333333     6.93819    
Al3      Al     0.463783333333     0.569425000000     0.040066666667     7.4138     
Al4      Al     0.410300000000     0.739600000000     0.289216666667     7.10093    
P1       P      0.478716666667     0.512275000000     0.323953333333     1.79758    
P2       P      0.393516666667     0.525225000000     0.206033333333     1.13895    
P3       P      0.368350000000     0.587675000000     0.078543333333     1.67647    
P4       P      0.421816666667     0.659450000000     0.011946666667     1.67239    
P5       P      0.479783333333     0.735225000000     0.099353333333     1.81733    
O1       O      0.389683333333     0.501550000000     0.179966666667    -1.89831    
O2       O      0.402266666667     0.746150000000     0.243700000000    -1.97492    
O3       O      0.341533333333     0.732250000000     0.131900000000    -2.00421    
O4       O      0.450116666667     0.514625000000     0.292066666667    -2.04845    
O5       O      0.442533333333     0.665600000000     0.043566666667    -2.14029    
O6       O      0.361283333333     0.511400000000     0.310533333333    -2.11964    
O7       O      0.428266666667     0.690125000000     0.309233333333    -2.1103     
O8       O      0.347500000000     0.581825000000     0.046400000000    -2.14478    
O9       O      0.430516666667     0.739225000000     0.112833333333    -2.15309    
O10      O      0.360633333333     0.558175000000     0.114166666667    -2.03261    
O11      O      0.419333333333     0.582150000000     0.071933333333    -2.04599    
O12      O      0.370966666667     0.664075000000     0.019533333333    -2.07298    
O13      O      0.475333333333     0.727300000000     0.020666666667    -2.09507    
O14      O      0.484950000000     0.519850000000     0.068700000000    -2.10158    
O15      O      0.428050000000     0.548025000000     0.194966666667    -0.520755   
O16      O      0.496466666667     0.696975000000     0.088500000000    -2.05098    
O17      O      0.346816666667     0.627925000000     0.084733333333    -1.69459    
O18      O      0.444050000000     0.619575000000     0.005066666667    -1.5968     
O19      O      0.460383333333     0.550850000000     0.001400000000    -1.90625    
O20      O      0.345133333333     0.555100000000     0.207200000000    -0.431636   
Al1      Al     0.493683333333     0.677550000000     0.384693333333     7.59588    
Al2      Al     0.380800000000     0.508225000000     0.467406666667     6.93827    
Al3      Al     0.463783333333     0.569425000000     0.373400000000     7.41445    
Al4      Al     0.410300000000     0.739600000000     0.622550000000     7.10104    
P1       P      0.478716666667     0.512275000000     0.657286666667     1.7976     
P2       P      0.393516666667     0.525225000000     0.539366666667     1.13896    
P3       P      0.368350000000     0.587675000000     0.411876666667     1.67657    
P4       P      0.421816666667     0.659450000000     0.345280000000     1.67069    
P5       P      0.479783333333     0.735225000000     0.432686666667     1.81739    
O1       O      0.389683333333     0.501550000000     0.513300000000    -1.89831    
O2       O      0.402266666667     0.746150000000     0.577033333333    -1.97493    
O3       O      0.341533333333     0.732250000000     0.465233333333    -2.00423    
O4       O      0.450116666667     0.514625000000     0.625400000000    -2.04846    
O5       O      0.442533333333     0.665600000000     0.376900000000    -2.14042    
O6       O      0.361283333333     0.511400000000     0.643866666667    -2.11965    
O7       O      0.428266666667     0.690125000000     0.642566666667    -2.11032    
O8       O      0.347500000000     0.581825000000     0.379733333333    -2.14521    
O9       O      0.430516666667     0.739225000000     0.446166666667    -2.15315    
O10      O      0.360633333333     0.558175000000     0.447500000000    -2.03263    
O11      O      0.419333333333     0.582150000000     0.405266666667    -2.04613    
O12      O      0.370966666667     0.664075000000     0.352866666667    -2.07363    
O13      O      0.475333333333     0.727300000000     0.354000000000    -2.09762    
O14      O      0.484950000000     0.519850000000     0.402033333333    -2.10192    
O15      O      0.428050000000     0.548025000000     0.528300000000    -0.520736   
O16      O      0.496466666667     0.696975000000     0.421833333333    -2.05111    
O17      O      0.346816666667     0.627925000000     0.418066666667    -1.69465    
O18      O      0.444050000000     0.619575000000     0.338400000000    -1.59748    
O19      O      0.460383333333     0.550850000000     0.334733333333    -1.90886    
O20      O      0.345133333333     0.555100000000     0.540533333333    -0.431614   
Al1      Al     0.493683333333     0.677550000000     0.718026666667     7.59596    
Al2      Al     0.380800000000     0.508225000000     0.800740000000     6.93821    
Al3      Al     0.463783333333     0.569425000000     0.706733333333     7.41454    
Al4      Al     0.410300000000     0.739600000000     0.955883333333     7.09769    
P1       P      0.478716666667     0.512275000000     0.990620000000     1.79312    
P2       P      0.393516666667     0.525225000000     0.872700000000     1.13879    
P3       P      0.368350000000     0.587675000000     0.745210000000     1.67658    
P4       P      0.421816666667     0.659450000000     0.678613333333     1.67071    
P5       P      0.479783333333     0.735225000000     0.766020000000     1.81739    
O1       O      0.389683333333     0.501550000000     0.846633333333    -1.89833    
O2       O      0.402266666667     0.746150000000     0.910366666667    -1.97433    
O3       O      0.341533333333     0.732250000000     0.798566666667    -2.00425    
O4       O      0.450116666667     0.514625000000     0.958733333333    -2.0478     
O5       O      0.442533333333     0.665600000000     0.710233333333    -2.14043    
O6       O      0.361283333333     0.511400000000     0.977200000000    -2.11948    
O7       O      0.428266666667     0.690125000000     0.975900000000    -2.11175    
O8       O      0.347500000000     0.581825000000     0.713066666667    -2.14522    
O9       O      0.430516666667     0.739225000000     0.779500000000    -2.15315    
O10      O      0.360633333333     0.558175000000     0.780833333333    -2.03262    
O11      O      0.419333333333     0.582150000000     0.738600000000    -2.04614    
O12      O      0.370966666667     0.664075000000     0.686200000000    -2.07364    
O13      O      0.475333333333     0.727300000000     0.687333333333    -2.09763    
O14      O      0.484950000000     0.519850000000     0.735366666667    -2.10192    
O15      O      0.428050000000     0.548025000000     0.861633333333    -0.520778   
O16      O      0.496466666667     0.696975000000     0.755166666667    -2.05113    
O17      O      0.346816666667     0.627925000000     0.751400000000    -1.69467    
O18      O      0.444050000000     0.619575000000     0.671733333333    -1.59748    
O19      O      0.460383333333     0.550850000000     0.668066666667    -1.90886    
O20      O      0.345133333333     0.555100000000     0.873866666667    -0.431723   
Al1      Al     0.493683333333     0.927550000000     0.051360000000     7.59581    
Al2      Al     0.380800000000     0.758225000000     0.134073333333     6.93818    
Al3      Al     0.463783333333     0.819425000000     0.040066666667     7.41388    
Al4      Al     0.410300000000     0.989600000000     0.289216666667     7.10676    
P1       P      0.478716666667     0.762275000000     0.323953333333     1.79758    
P2       P      0.393516666667     0.775225000000     0.206033333333     1.13894    
P3       P      0.368350000000     0.837675000000     0.078543333333     1.67648    
P4       P      0.421816666667     0.909450000000     0.011946666667     1.67268    
P5       P      0.479783333333     0.985225000000     0.099353333333     1.81751    
O1       O      0.389683333333     0.751550000000     0.179966666667    -1.89831    
O2       O      0.402266666667     0.996150000000     0.243700000000    -1.97539    
O3       O      0.341533333333     0.982250000000     0.131900000000    -2.00257    
O4       O      0.450116666667     0.764625000000     0.292066666667    -2.04845    
O5       O      0.442533333333     0.915600000000     0.043566666667    -2.14038    
O6       O      0.361283333333     0.761400000000     0.310533333333    -2.11963    
O7       O      0.428266666667     0.940125000000     0.309233333333    -2.11149    
O8       O      0.347500000000     0.831825000000     0.046400000000    -2.14481    
O9       O      0.430516666667     0.989225000000     0.112833333333    -2.15139    
O10      O      0.360633333333     0.808175000000     0.114166666667    -2.0326     
O11      O      0.419333333333     0.832150000000     0.071933333333    -2.04602    
O12      O      0.370966666667     0.914075000000     0.019533333333    -2.07309    
O13      O      0.475333333333     0.977300000000     0.020666666667    -2.09465    
O14      O      0.484950000000     0.769850000000     0.068700000000    -2.10159    
O15      O      0.428050000000     0.798025000000     0.194966666667    -0.520738   
O16      O      0.496466666667     0.946975000000     0.088500000000    -2.05096    
O17      O      0.346816666667     0.877925000000     0.084733333333    -1.69463    
O18      O      0.444050000000     0.869575000000     0.005066666667    -1.59684    
O19      O      0.460383333333     0.800850000000     0.001400000000    -1.90626    
O20      O      0.345133333333     0.805100000000     0.207200000000    -0.431613   
Al1      Al     0.493683333333     0.927550000000     0.384693333333     7.59618    
Al2      Al     0.380800000000     0.758225000000     0.467406666667     6.93827    
Al3      Al     0.463783333333     0.819425000000     0.373400000000     7.41454    
Al4      Al     0.410300000000     0.989600000000     0.622550000000     7.10683    
P1       P      0.478716666667     0.762275000000     0.657286666667     1.7976     
P2       P      0.393516666667     0.775225000000     0.539366666667     1.13896    
P3       P      0.368350000000     0.837675000000     0.411876666667     1.67658    
P4       P      0.421816666667     0.909450000000     0.345280000000     1.67098    
P5       P      0.479783333333     0.985225000000     0.432686666667     1.81757    
O1       O      0.389683333333     0.751550000000     0.513300000000    -1.89831    
O2       O      0.402266666667     0.996150000000     0.577033333333    -1.97539    
O3       O      0.341533333333     0.982250000000     0.465233333333    -2.0026     
O4       O      0.450116666667     0.764625000000     0.625400000000    -2.04846    
O5       O      0.442533333333     0.915600000000     0.376900000000    -2.14051    
O6       O      0.361283333333     0.761400000000     0.643866666667    -2.11965    
O7       O      0.428266666667     0.940125000000     0.642566666667    -2.11149    
O8       O      0.347500000000     0.831825000000     0.379733333333    -2.14524    
O9       O      0.430516666667     0.989225000000     0.446166666667    -2.15146    
O10      O      0.360633333333     0.808175000000     0.447500000000    -2.03263    
O11      O      0.419333333333     0.832150000000     0.405266666667    -2.04616    
O12      O      0.370966666667     0.914075000000     0.352866666667    -2.07374    
O13      O      0.475333333333     0.977300000000     0.354000000000    -2.09719    
O14      O      0.484950000000     0.769850000000     0.402033333333    -2.10194    
O15      O      0.428050000000     0.798025000000     0.528300000000    -0.520719   
O16      O      0.496466666667     0.946975000000     0.421833333333    -2.05108    
O17      O      0.346816666667     0.877925000000     0.418066666667    -1.69469    
O18      O      0.444050000000     0.869575000000     0.338400000000    -1.59753    
O19      O      0.460383333333     0.800850000000     0.334733333333    -1.90887    
O20      O      0.345133333333     0.805100000000     0.540533333333    -0.431592   
Al1      Al     0.493683333333     0.927550000000     0.718026666667     7.59626    
Al2      Al     0.380800000000     0.758225000000     0.800740000000     6.9382     
Al3      Al     0.463783333333     0.819425000000     0.706733333333     7.41462    
Al4      Al     0.410300000000     0.989600000000     0.955883333333     7.10336    
P1       P      0.478716666667     0.762275000000     0.990620000000     1.79311    
P2       P      0.393516666667     0.775225000000     0.872700000000     1.13879    
P3       P      0.368350000000     0.837675000000     0.745210000000     1.6766     
P4       P      0.421816666667     0.909450000000     0.678613333333     1.671      
P5       P      0.479783333333     0.985225000000     0.766020000000     1.81757    
O1       O      0.389683333333     0.751550000000     0.846633333333    -1.89833    
O2       O      0.402266666667     0.996150000000     0.910366666667    -1.97478    
O3       O      0.341533333333     0.982250000000     0.798566666667    -2.00265    
O4       O      0.450116666667     0.764625000000     0.958733333333    -2.0478     
O5       O      0.442533333333     0.915600000000     0.710233333333    -2.14052    
O6       O      0.361283333333     0.761400000000     0.977200000000    -2.11948    
O7       O      0.428266666667     0.940125000000     0.975900000000    -2.11291    
O8       O      0.347500000000     0.831825000000     0.713066666667    -2.14525    
O9       O      0.430516666667     0.989225000000     0.779500000000    -2.15148    
O10      O      0.360633333333     0.808175000000     0.780833333333    -2.03261    
O11      O      0.419333333333     0.832150000000     0.738600000000    -2.04617    
O12      O      0.370966666667     0.914075000000     0.686200000000    -2.07375    
O13      O      0.475333333333     0.977300000000     0.687333333333    -2.09721    
O14      O      0.484950000000     0.769850000000     0.735366666667    -2.10194    
O15      O      0.428050000000     0.798025000000     0.861633333333    -0.520761   
O16      O      0.496466666667     0.946975000000     0.755166666667    -2.05111    
O17      O      0.346816666667     0.877925000000     0.751400000000    -1.69471    
O18      O      0.444050000000     0.869575000000     0.671733333333    -1.59753    
O19      O      0.460383333333     0.800850000000     0.668066666667    -1.90887    
O20      O      0.345133333333     0.805100000000     0.873866666667    -0.4317     
Al1      Al     0.660350000000     0.177550000000     0.051360000000     7.59544    
Al2      Al     0.547466666667     0.008225000000     0.134073333333     6.93305    
Al3      Al     0.630450000000     0.069425000000     0.040066666667     7.41366    
Al4      Al     0.576966666667     0.239600000000     0.289216666667     7.10101    
P1       P      0.645383333333     0.012275000000     0.323953333333     1.79752    
P2       P      0.560183333333     0.025225000000     0.206033333333     1.13843    
P3       P      0.535016666667     0.087675000000     0.078543333333     1.67623    
P4       P      0.588483333333     0.159450000000     0.011946666667     1.67238    
P5       P      0.646450000000     0.235225000000     0.099353333333     1.81733    
O1       O      0.556350000000     0.001550000000     0.179966666667    -1.89747    
O2       O      0.568933333333     0.246150000000     0.243700000000    -1.97493    
O3       O      0.508200000000     0.232250000000     0.131900000000    -2.00422    
O4       O      0.616783333333     0.014625000000     0.292066666667    -2.05014    
O5       O      0.609200000000     0.165600000000     0.043566666667    -2.14026    
O6       O      0.527950000000     0.011400000000     0.310533333333    -2.12131    
O7       O      0.594933333333     0.190125000000     0.309233333333    -2.11031    
O8       O      0.514166666667     0.081825000000     0.046400000000    -2.14474    
O9       O      0.597183333333     0.239225000000     0.112833333333    -2.15309    
O10      O      0.527300000000     0.058175000000     0.114166666667    -2.03156    
O11      O      0.586000000000     0.082150000000     0.071933333333    -2.04592    
O12      O      0.537633333333     0.164075000000     0.019533333333    -2.07298    
O13      O      0.642000000000     0.227300000000     0.020666666667    -2.09505    
O14      O      0.651616666667     0.019850000000     0.068700000000    -2.10198    
O15      O      0.594716666667     0.048025000000     0.194966666667    -0.520758   
O16      O      0.663133333333     0.196975000000     0.088500000000    -2.05095    
O17      O      0.513483333333     0.127925000000     0.084733333333    -1.69454    
O18      O      0.610716666667     0.119575000000     0.005066666667    -1.59677    
O19      O      0.627050000000     0.050850000000     0.001400000000    -1.9063     
O20      O      0.511800000000     0.055100000000     0.207200000000    -0.431689   
Al1      Al     0.660350000000     0.177550000000     0.384693333333     7.5958     
Al2      Al     0.547466666667     0.008225000000     0.467406666667     6.93317    
Al3      Al     0.630450000000     0.069425000000     0.373400000000     7.41432    
Al4      Al     0.576966666667     0.239600000000     0.622550000000     7.10112    
P1       P      0.645383333333     0.012275000000     0.657286666667     1.79755    
P2       P      0.560183333333     0.025225000000     0.539366666667     1.13845    
P3       P      0.535016666667     0.087675000000     0.411876666667     1.67634    
P4       P      0.588483333333     0.159450000000     0.345280000000     1.67069    
P5       P      0.646450000000     0.235225000000     0.432686666667     1.81739    
O1       O      0.556350000000     0.001550000000     0.513300000000    -1.89748    
O2       O      0.568933333333     0.246150000000     0.577033333333    -1.97493    
O3       O      0.508200000000     0.232250000000     0.465233333333    -2.00424    
O4       O      0.616783333333     0.014625000000     0.625400000000    -2.05014    
O5       O      0.609200000000     0.165600000000     0.376900000000    -2.14039    
O6       O      0.527950000000     0.011400000000     0.643866666667    -2.12131    
O7       O      0.594933333333     0.190125000000     0.642566666667    -2.11032    
O8       O      0.514166666667     0.081825000000     0.379733333333    -2.14517    
O9       O      0.597183333333     0.239225000000     0.446166666667    -2.15315    
O10      O      0.527300000000     0.058175000000     0.447500000000    -2.03159    
O11      O      0.586000000000     0.082150000000     0.405266666667    -2.04606    
O12      O      0.537633333333     0.164075000000     0.352866666667    -2.07362    
O13      O      0.642000000000     0.227300000000     0.354000000000    -2.09759    
O14      O      0.651616666667     0.019850000000     0.402033333333    -2.10232    
O15      O      0.594716666667     0.048025000000     0.528300000000    -0.520739   
O16      O      0.663133333333     0.196975000000     0.421833333333    -2.05107    
O17      O      0.513483333333     0.127925000000     0.418066666667    -1.6946     
O18      O      0.610716666667     0.119575000000     0.338400000000    -1.59746    
O19      O      0.627050000000     0.050850000000     0.334733333333    -1.90889    
O20      O      0.511800000000     0.055100000000     0.540533333333    -0.431666   
Al1      Al     0.660350000000     0.177550000000     0.718026666667     7.59588    
Al2      Al     0.547466666667     0.008225000000     0.800740000000     6.93319    
Al3      Al     0.630450000000     0.069425000000     0.706733333333     7.41441    
Al4      Al     0.576966666667     0.239600000000     0.955883333333     7.09779    
P1       P      0.645383333333     0.012275000000     0.990620000000     1.79308    
P2       P      0.560183333333     0.025225000000     0.872700000000     1.13829    
P3       P      0.535016666667     0.087675000000     0.745210000000     1.67635    
P4       P      0.588483333333     0.159450000000     0.678613333333     1.67071    
P5       P      0.646450000000     0.235225000000     0.766020000000     1.8174     
O1       O      0.556350000000     0.001550000000     0.846633333333    -1.89751    
O2       O      0.568933333333     0.246150000000     0.910366666667    -1.97434    
O3       O      0.508200000000     0.232250000000     0.798566666667    -2.00425    
O4       O      0.616783333333     0.014625000000     0.958733333333    -2.04944    
O5       O      0.609200000000     0.165600000000     0.710233333333    -2.1404     
O6       O      0.527950000000     0.011400000000     0.977200000000    -2.1211     
O7       O      0.594933333333     0.190125000000     0.975900000000    -2.11175    
O8       O      0.514166666667     0.081825000000     0.713066666667    -2.14518    
O9       O      0.597183333333     0.239225000000     0.779500000000    -2.15315    
O10      O      0.527300000000     0.058175000000     0.780833333333    -2.03159    
O11      O      0.586000000000     0.082150000000     0.738600000000    -2.04607    
O12      O      0.537633333333     0.164075000000     0.686200000000    -2.07363    
O13      O      0.642000000000     0.227300000000     0.687333333333    -2.0976     
O14      O      0.651616666667     0.019850000000     0.735366666667    -2.10232    
O15      O      0.594716666667     0.048025000000     0.861633333333    -0.520779   
O16      O      0.663133333333     0.196975000000     0.755166666667    -2.05109    
O17      O      0.513483333333     0.127925000000     0.751400000000    -1.69462    
O18      O      0.610716666667     0.119575000000     0.671733333333    -1.59746    
O19      O      0.627050000000     0.050850000000     0.668066666667    -1.9089     
O20      O      0.511800000000     0.055100000000     0.873866666667    -0.431772   
Al1      Al     0.660350000000     0.427550000000     0.051360000000     7.59552    
Al2      Al     0.547466666667     0.258225000000     0.134073333333     6.93827    
Al3      Al     0.630450000000     0.319425000000     0.040066666667     7.41384    
Al4      Al     0.576966666667     0.489600000000     0.289216666667     7.10101    
P1       P      0.645383333333     0.262275000000     0.323953333333     1.79758    
P2       P      0.560183333333     0.275225000000     0.206033333333     1.13896    
P3       P      0.535016666667     0.337675000000     0.078543333333     1.67649    
P4       P      0.588483333333     0.409450000000     0.011946666667     1.6724     
P5       P      0.646450000000     0.485225000000     0.099353333333     1.81733    
O1       O      0.556350000000     0.251550000000     0.179966666667    -1.89832    
O2       O      0.568933333333     0.496150000000     0.243700000000    -1.97493    
O3       O      0.508200000000     0.482250000000     0.131900000000    -2.00422    
O4       O      0.616783333333     0.264625000000     0.292066666667    -2.04845    
O5       O      0.609200000000     0.415600000000     0.043566666667    -2.14029    
O6       O      0.527950000000     0.261400000000     0.310533333333    -2.11964    
O7       O      0.594933333333     0.440125000000     0.309233333333    -2.11031    
O8       O      0.514166666667     0.331825000000     0.046400000000    -2.1448     
O9       O      0.597183333333     0.489225000000     0.112833333333    -2.15309    
O10      O      0.527300000000     0.308175000000     0.114166666667    -2.03262    
O11      O      0.586000000000     0.332150000000     0.071933333333    -2.04599    
O12      O      0.537633333333     0.414075000000     0.019533333333    -2.073      
O13      O      0.642000000000     0.477300000000     0.020666666667    -2.09507    
O14      O      0.651616666667     0.269850000000     0.068700000000    -2.10157    
O15      O      0.594716666667     0.298025000000     0.194966666667    -0.520739   
O16      O      0.663133333333     0.446975000000     0.088500000000    -2.05097    
O17      O      0.513483333333     0.377925000000     0.084733333333    -1.6946     
O18      O      0.610716666667     0.369575000000     0.005066666667    -1.59679    
O19      O      0.627050000000     0.300850000000     0.001400000000    -1.90625    
O20      O      0.511800000000     0.305100000000     0.207200000000    -0.431624   
Al1      Al     0.660350000000     0.427550000000     0.384693333333     7.59589    
Al2      Al     0.547466666667     0.258225000000     0.467406666667     6.93835    
Al3      Al     0.630450000000     0.319425000000     0.373400000000     7.41449    
Al4      Al     0.576966666667     0.489600000000     0.622550000000     7.10113    
P1       P      0.645383333333     0.262275000000     0.657286666667     1.7976     
P2       P      0.560183333333     0.275225000000     0.539366666667     1.13898    
P3       P      0.535016666667     0.337675000000     0.411876666667     1.67659    
P4       P      0.588483333333     0.409450000000     0.345280000000     1.6707     
P5       P      0.646450000000     0.485225000000     0.432686666667     1.81739    
O1       O      0.556350000000     0.251550000000     0.513300000000    -1.89831    
O2       O      0.568933333333     0.496150000000     0.577033333333    -1.97493    
O3       O      0.508200000000     0.482250000000     0.465233333333    -2.00423    
O4       O      0.616783333333     0.264625000000     0.625400000000    -2.04846    
O5       O      0.609200000000     0.415600000000     0.376900000000    -2.14041    
O6       O      0.527950000000     0.261400000000     0.643866666667    -2.11966    
O7       O      0.594933333333     0.440125000000     0.642566666667    -2.11032    
O8       O      0.514166666667     0.331825000000     0.379733333333    -2.14523    
O9       O      0.597183333333     0.489225000000     0.446166666667    -2.15315    
O10      O      0.527300000000     0.308175000000     0.447500000000    -2.03264    
O11      O      0.586000000000     0.332150000000     0.405266666667    -2.04613    
O12      O      0.537633333333     0.414075000000     0.352866666667    -2.07364    
O13      O      0.642000000000     0.477300000000     0.354000000000    -2.09761    
O14      O      0.651616666667     0.269850000000     0.402033333333    -2.10191    
O15      O      0.594716666667     0.298025000000     0.528300000000    -0.52072    
O16      O      0.663133333333     0.446975000000     0.421833333333    -2.05109    
O17      O      0.513483333333     0.377925000000     0.418066666667    -1.69466    
O18      O      0.610716666667     0.369575000000     0.338400000000    -1.59747    
O19      O      0.627050000000     0.300850000000     0.334733333333    -1.90885    
O20      O      0.511800000000     0.305100000000     0.540533333333    -0.431602   
Al1      Al     0.660350000000     0.427550000000     0.718026666667     7.59597    
Al2      Al     0.547466666667     0.258225000000     0.800740000000     6.93829    
Al3      Al     0.630450000000     0.319425000000     0.706733333333     7.41457    
Al4      Al     0.576966666667     0.489600000000     0.955883333333     7.09778    
P1       P      0.645383333333     0.262275000000     0.990620000000     1.79313    
P2       P      0.560183333333     0.275225000000     0.872700000000     1.13881    
P3       P      0.535016666667     0.337675000000     0.745210000000     1.6766     
P4       P      0.588483333333     0.409450000000     0.678613333333     1.67073    
P5       P      0.646450000000     0.485225000000     0.766020000000     1.8174     
O1       O      0.556350000000     0.251550000000     0.846633333333    -1.89833    
O2       O      0.568933333333     0.496150000000     0.910366666667    -1.97434    
O3       O      0.508200000000     0.482250000000     0.798566666667    -2.00425    
O4       O      0.616783333333     0.264625000000     0.958733333333    -2.0478     
O5       O      0.609200000000     0.415600000000     0.710233333333    -2.14043    
O6       O      0.527950000000     0.261400000000     0.977200000000    -2.11948    
O7       O      0.594933333333     0.440125000000     0.975900000000    -2.11175    
O8       O      0.514166666667     0.331825000000     0.713066666667    -2.14524    
O9       O      0.597183333333     0.489225000000     0.779500000000    -2.15315    
O10      O      0.527300000000     0.308175000000     0.780833333333    -2.03263    
O11      O      0.586000000000     0.332150000000     0.738600000000    -2.04614    
O12      O      0.537633333333     0.414075000000     0.686200000000    -2.07365    
O13      O      0.642000000000     0.477300000000     0.687333333333    -2.09762    
O14      O      0.651616666667     0.269850000000     0.735366666667    -2.10191    
O15      O      0.594716666667     0.298025000000     0.861633333333    -0.520762   
O16      O      0.663133333333     0.446975000000     0.755166666667    -2.05111    
O17      O      0.513483333333     0.377925000000     0.751400000000    -1.69468    
O18      O      0.610716666667     0.369575000000     0.671733333333    -1.59747    
O19      O      0.627050000000     0.300850000000     0.668066666667    -1.90885    
O20      O      0.511800000000     0.305100000000     0.873866666667    -0.43171    
Al1      Al     0.660350000000     0.677550000000     0.051360000000     7.5955     
Al2      Al     0.547466666667     0.508225000000     0.134073333333     6.93826    
Al3      Al     0.630450000000     0.569425000000     0.040066666667     7.41383    
Al4      Al     0.576966666667     0.739600000000     0.289216666667     7.101      
P1       P      0.645383333333     0.512275000000     0.323953333333     1.79758    
P2       P      0.560183333333     0.525225000000     0.206033333333     1.13896    
P3       P      0.535016666667     0.587675000000     0.078543333333     1.67649    
P4       P      0.588483333333     0.659450000000     0.011946666667     1.6724     
P5       P      0.646450000000     0.735225000000     0.099353333333     1.81733    
O1       O      0.556350000000     0.501550000000     0.179966666667    -1.89831    
O2       O      0.568933333333     0.746150000000     0.243700000000    -1.97492    
O3       O      0.508200000000     0.732250000000     0.131900000000    -2.00422    
O4       O      0.616783333333     0.514625000000     0.292066666667    -2.04846    
O5       O      0.609200000000     0.665600000000     0.043566666667    -2.14029    
O6       O      0.527950000000     0.511400000000     0.310533333333    -2.11965    
O7       O      0.594933333333     0.690125000000     0.309233333333    -2.11031    
O8       O      0.514166666667     0.581825000000     0.046400000000    -2.1448     
O9       O      0.597183333333     0.739225000000     0.112833333333    -2.1531     
O10      O      0.527300000000     0.558175000000     0.114166666667    -2.03262    
O11      O      0.586000000000     0.582150000000     0.071933333333    -2.04599    
O12      O      0.537633333333     0.664075000000     0.019533333333    -2.073      
O13      O      0.642000000000     0.727300000000     0.020666666667    -2.09506    
O14      O      0.651616666667     0.519850000000     0.068700000000    -2.10157    
O15      O      0.594716666667     0.548025000000     0.194966666667    -0.520742   
O16      O      0.663133333333     0.696975000000     0.088500000000    -2.05097    
O17      O      0.513483333333     0.627925000000     0.084733333333    -1.6946     
O18      O      0.610716666667     0.619575000000     0.005066666667    -1.59679    
O19      O      0.627050000000     0.550850000000     0.001400000000    -1.90624    
O20      O      0.511800000000     0.555100000000     0.207200000000    -0.431628   
Al1      Al     0.660350000000     0.677550000000     0.384693333333     7.59587    
Al2      Al     0.547466666667     0.508225000000     0.467406666667     6.93835    
Al3      Al     0.630450000000     0.569425000000     0.373400000000     7.41448    
Al4      Al     0.576966666667     0.739600000000     0.622550000000     7.10111    
P1       P      0.645383333333     0.512275000000     0.657286666667     1.7976     
P2       P      0.560183333333     0.525225000000     0.539366666667     1.13898    
P3       P      0.535016666667     0.587675000000     0.411876666667     1.67659    
P4       P      0.588483333333     0.659450000000     0.345280000000     1.6707     
P5       P      0.646450000000     0.735225000000     0.432686666667     1.81739    
O1       O      0.556350000000     0.501550000000     0.513300000000    -1.89831    
O2       O      0.568933333333     0.746150000000     0.577033333333    -1.97493    
O3       O      0.508200000000     0.732250000000     0.465233333333    -2.00424    
O4       O      0.616783333333     0.514625000000     0.625400000000    -2.04847    
O5       O      0.609200000000     0.665600000000     0.376900000000    -2.14041    
O6       O      0.527950000000     0.511400000000     0.643866666667    -2.11966    
O7       O      0.594933333333     0.690125000000     0.642566666667    -2.11032    
O8       O      0.514166666667     0.581825000000     0.379733333333    -2.14523    
O9       O      0.597183333333     0.739225000000     0.446166666667    -2.15316    
O10      O      0.527300000000     0.558175000000     0.447500000000    -2.03264    
O11      O      0.586000000000     0.582150000000     0.405266666667    -2.04613    
O12      O      0.537633333333     0.664075000000     0.352866666667    -2.07364    
O13      O      0.642000000000     0.727300000000     0.354000000000    -2.09761    
O14      O      0.651616666667     0.519850000000     0.402033333333    -2.10191    
O15      O      0.594716666667     0.548025000000     0.528300000000    -0.520723   
O16      O      0.663133333333     0.696975000000     0.421833333333    -2.05109    
O17      O      0.513483333333     0.627925000000     0.418066666667    -1.69466    
O18      O      0.610716666667     0.619575000000     0.338400000000    -1.59747    
O19      O      0.627050000000     0.550850000000     0.334733333333    -1.90885    
O20      O      0.511800000000     0.555100000000     0.540533333333    -0.431607   
Al1      Al     0.660350000000     0.677550000000     0.718026666667     7.59595    
Al2      Al     0.547466666667     0.508225000000     0.800740000000     6.93828    
Al3      Al     0.630450000000     0.569425000000     0.706733333333     7.41456    
Al4      Al     0.576966666667     0.739600000000     0.955883333333     7.09776    
P1       P      0.645383333333     0.512275000000     0.990620000000     1.79312    
P2       P      0.560183333333     0.525225000000     0.872700000000     1.1388     
P3       P      0.535016666667     0.587675000000     0.745210000000     1.6766     
P4       P      0.588483333333     0.659450000000     0.678613333333     1.67072    
P5       P      0.646450000000     0.735225000000     0.766020000000     1.8174     
O1       O      0.556350000000     0.501550000000     0.846633333333    -1.89833    
O2       O      0.568933333333     0.746150000000     0.910366666667    -1.97433    
O3       O      0.508200000000     0.732250000000     0.798566666667    -2.00426    
O4       O      0.616783333333     0.514625000000     0.958733333333    -2.04781    
O5       O      0.609200000000     0.665600000000     0.710233333333    -2.14043    
O6       O      0.527950000000     0.511400000000     0.977200000000    -2.11949    
O7       O      0.594933333333     0.690125000000     0.975900000000    -2.11176    
O8       O      0.514166666667     0.581825000000     0.713066666667    -2.14524    
O9       O      0.597183333333     0.739225000000     0.779500000000    -2.15315    
O10      O      0.527300000000     0.558175000000     0.780833333333    -2.03263    
O11      O      0.586000000000     0.582150000000     0.738600000000    -2.04614    
O12      O      0.537633333333     0.664075000000     0.686200000000    -2.07365    
O13      O      0.642000000000     0.727300000000     0.687333333333    -2.09762    
O14      O      0.651616666667     0.519850000000     0.735366666667    -2.10191    
O15      O      0.594716666667     0.548025000000     0.861633333333    -0.520765   
O16      O      0.663133333333     0.696975000000     0.755166666667    -2.05112    
O17      O      0.513483333333     0.627925000000     0.751400000000    -1.69468    
O18      O      0.610716666667     0.619575000000     0.671733333333    -1.59747    
O19      O      0.627050000000     0.550850000000     0.668066666667    -1.90885    
O20      O      0.511800000000     0.555100000000     0.873866666667    -0.431715   
Al1      Al     0.660350000000     0.927550000000     0.051360000000     7.5958     
Al2      Al     0.547466666667     0.758225000000     0.134073333333     6.93826    
Al3      Al     0.630450000000     0.819425000000     0.040066666667     7.41391    
Al4      Al     0.576966666667     0.989600000000     0.289216666667     7.10684    
P1       P      0.645383333333     0.762275000000     0.323953333333     1.79758    
P2       P      0.560183333333     0.775225000000     0.206033333333     1.13895    
P3       P      0.535016666667     0.837675000000     0.078543333333     1.6765     
P4       P      0.588483333333     0.909450000000     0.011946666667     1.67269    
P5       P      0.646450000000     0.985225000000     0.099353333333     1.81751    
O1       O      0.556350000000     0.751550000000     0.179966666667    -1.89831    
O2       O      0.568933333333     0.996150000000     0.243700000000    -1.97539    
O3       O      0.508200000000     0.982250000000     0.131900000000    -2.00258    
O4       O      0.616783333333     0.764625000000     0.292066666667    -2.04845    
O5       O      0.609200000000     0.915600000000     0.043566666667    -2.14037    
O6       O      0.527950000000     0.761400000000     0.310533333333    -2.11964    
O7       O      0.594933333333     0.940125000000     0.309233333333    -2.1115     
O8       O      0.514166666667     0.831825000000     0.046400000000    -2.14482    
O9       O      0.597183333333     0.989225000000     0.112833333333    -2.1514     
O10      O      0.527300000000     0.808175000000     0.114166666667    -2.03261    
O11      O      0.586000000000     0.832150000000     0.071933333333    -2.04602    
O12      O      0.537633333333     0.914075000000     0.019533333333    -2.0731     
O13      O      0.642000000000     0.977300000000     0.020666666667    -2.09464    
O14      O      0.651616666667     0.769850000000     0.068700000000    -2.10159    
O15      O      0.594716666667     0.798025000000     0.194966666667    -0.520725   
O16      O      0.663133333333     0.946975000000     0.088500000000    -2.05094    
O17      O      0.513483333333     0.877925000000     0.084733333333    -1.69464    
O18      O      0.610716666667     0.869575000000     0.005066666667    -1.59684    
O19      O      0.627050000000     0.800850000000     0.001400000000    -1.90625    
O20      O      0.511800000000     0.805100000000     0.207200000000    -0.431605   
Al1      Al     0.660350000000     0.927550000000     0.384693333333     7.59617    
Al2      Al     0.547466666667     0.758225000000     0.467406666667     6.93834    
Al3      Al     0.630450000000     0.819425000000     0.373400000000     7.41456    
Al4      Al     0.576966666667     0.989600000000     0.622550000000     7.1069     
P1       P      0.645383333333     0.762275000000     0.657286666667     1.7976     
P2       P      0.560183333333     0.775225000000     0.539366666667     1.13897    
P3       P      0.535016666667     0.837675000000     0.411876666667     1.6766     
P4       P      0.588483333333     0.909450000000     0.345280000000     1.671      
P5       P      0.646450000000     0.985225000000     0.432686666667     1.81757    
O1       O      0.556350000000     0.751550000000     0.513300000000    -1.89831    
O2       O      0.568933333333     0.996150000000     0.577033333333    -1.9754     
O3       O      0.508200000000     0.982250000000     0.465233333333    -2.00261    
O4       O      0.616783333333     0.764625000000     0.625400000000    -2.04846    
O5       O      0.609200000000     0.915600000000     0.376900000000    -2.1405     
O6       O      0.527950000000     0.761400000000     0.643866666667    -2.11966    
O7       O      0.594933333333     0.940125000000     0.642566666667    -2.1115     
O8       O      0.514166666667     0.831825000000     0.379733333333    -2.14526    
O9       O      0.597183333333     0.989225000000     0.446166666667    -2.15147    
O10      O      0.527300000000     0.808175000000     0.447500000000    -2.03264    
O11      O      0.586000000000     0.832150000000     0.405266666667    -2.04616    
O12      O      0.537633333333     0.914075000000     0.352866666667    -2.07375    
O13      O      0.642000000000     0.977300000000     0.354000000000    -2.09718    
O14      O      0.651616666667     0.769850000000     0.402033333333    -2.10193    
O15      O      0.594716666667     0.798025000000     0.528300000000    -0.520706   
O16      O      0.663133333333     0.946975000000     0.421833333333    -2.05107    
O17      O      0.513483333333     0.877925000000     0.418066666667    -1.6947     
O18      O      0.610716666667     0.869575000000     0.338400000000    -1.59752    
O19      O      0.627050000000     0.800850000000     0.334733333333    -1.90886    
O20      O      0.511800000000     0.805100000000     0.540533333333    -0.431584   
Al1      Al     0.660350000000     0.927550000000     0.718026666667     7.59625    
Al2      Al     0.547466666667     0.758225000000     0.800740000000     6.93827    
Al3      Al     0.630450000000     0.819425000000     0.706733333333     7.41465    
Al4      Al     0.576966666667     0.989600000000     0.955883333333     7.10344    
P1       P      0.645383333333     0.762275000000     0.990620000000     1.79311    
P2       P      0.560183333333     0.775225000000     0.872700000000     1.1388     
P3       P      0.535016666667     0.837675000000     0.745210000000     1.67661    
P4       P      0.588483333333     0.909450000000     0.678613333333     1.67102    
P5       P      0.646450000000     0.985225000000     0.766020000000     1.81758    
O1       O      0.556350000000     0.751550000000     0.846633333333    -1.89833    
O2       O      0.568933333333     0.996150000000     0.910366666667    -1.97478    
O3       O      0.508200000000     0.982250000000     0.798566666667    -2.00265    
O4       O      0.616783333333     0.764625000000     0.958733333333    -2.0478     
O5       O      0.609200000000     0.915600000000     0.710233333333    -2.14052    
O6       O      0.527950000000     0.761400000000     0.977200000000    -2.11949    
O7       O      0.594933333333     0.940125000000     0.975900000000    -2.11291    
O8       O      0.514166666667     0.831825000000     0.713066666667    -2.14527    
O9       O      0.597183333333     0.989225000000     0.779500000000    -2.15149    
O10      O      0.527300000000     0.808175000000     0.780833333333    -2.03262    
O11      O      0.586000000000     0.832150000000     0.738600000000    -2.04617    
O12      O      0.537633333333     0.914075000000     0.686200000000    -2.07376    
O13      O      0.642000000000     0.977300000000     0.687333333333    -2.0972     
O14      O      0.651616666667     0.769850000000     0.735366666667    -2.10193    
O15      O      0.594716666667     0.798025000000     0.861633333333    -0.520749   
O16      O      0.663133333333     0.946975000000     0.755166666667    -2.05109    
O17      O      0.513483333333     0.877925000000     0.751400000000    -1.69472    
O18      O      0.610716666667     0.869575000000     0.671733333333    -1.59752    
O19      O      0.627050000000     0.800850000000     0.668066666667    -1.90886    
O20      O      0.511800000000     0.805100000000     0.873866666667    -0.431692   
Al1      Al     0.827016666667     0.177550000000     0.051360000000     7.59415    
Al2      Al     0.714133333333     0.008225000000     0.134073333333     6.93298    
Al3      Al     0.797116666667     0.069425000000     0.040066666667     7.413      
Al4      Al     0.743633333333     0.239600000000     0.289216666667     7.10089    
P1       P      0.812050000000     0.012275000000     0.323953333333     1.79731    
P2       P      0.726850000000     0.025225000000     0.206033333333     1.13843    
P3       P      0.701683333333     0.087675000000     0.078543333333     1.67621    
P4       P      0.755150000000     0.159450000000     0.011946666667     1.67231    
P5       P      0.813116666667     0.235225000000     0.099353333333     1.81717    
O1       O      0.723016666667     0.001550000000     0.179966666667    -1.89745    
O2       O      0.735600000000     0.246150000000     0.243700000000    -1.97489    
O3       O      0.674866666667     0.232250000000     0.131900000000    -2.00419    
O4       O      0.783450000000     0.014625000000     0.292066666667    -2.05005    
O5       O      0.775866666667     0.165600000000     0.043566666667    -2.13997    
O6       O      0.694616666667     0.011400000000     0.310533333333    -2.12127    
O7       O      0.761600000000     0.190125000000     0.309233333333    -2.11025    
O8       O      0.680833333333     0.081825000000     0.046400000000    -2.14471    
O9       O      0.763850000000     0.239225000000     0.112833333333    -2.15304    
O10      O      0.693966666667     0.058175000000     0.114166666667    -2.03152    
O11      O      0.752666666667     0.082150000000     0.071933333333    -2.04575    
O12      O      0.704300000000     0.164075000000     0.019533333333    -2.07295    
O13      O      0.808666666667     0.227300000000     0.020666666667    -2.09472    
O14      O      0.818283333333     0.019850000000     0.068700000000    -2.10167    
O15      O      0.761383333333     0.048025000000     0.194966666667    -0.520728   
O16      O      0.829800000000     0.196975000000     0.088500000000    -2.05065    
O17      O      0.680150000000     0.127925000000     0.084733333333    -1.69453    
O18      O      0.777383333333     0.119575000000     0.005066666667    -1.59664    
O19      O      0.793716666667     0.050850000000     0.001400000000    -1.90611    
O20      O      0.678466666667     0.055100000000     0.207200000000    -0.43167    
Al1      Al     0.827016666667     0.177550000000     0.384693333333     7.59452    
Al2      Al     0.714133333333     0.008225000000     0.467406666667     6.9331     
Al3      Al     0.797116666667     0.069425000000     0.373400000000     7.41366    
Al4      Al     0.743633333333     0.239600000000     0.622550000000     7.101      
P1       P      0.812050000000     0.012275000000     0.657286666667     1.79734    
P2       P      0.726850000000     0.025225000000     0.539366666667     1.13845    
P3       P      0.701683333333     0.087675000000     0.411876666667     1.67631    
P4       P      0.755150000000     0.159450000000     0.345280000000     1.67062    
P5       P      0.813116666667     0.235225000000     0.432686666667     1.81723    
O1       O      0.723016666667     0.001550000000     0.513300000000    -1.89745    
O2       O      0.735600000000     0.246150000000     0.577033333333    -1.9749     
O3       O      0.674866666667     0.232250000000     0.465233333333    -2.00421    
O4       O      0.783450000000     0.014625000000     0.625400000000    -2.05005    
O5       O      0.775866666667     0.165600000000     0.376900000000    -2.14009    
O6       O      0.694616666667     0.011400000000     0.643866666667    -2.12127    
O7       O      0.761600000000     0.190125000000     0.642566666667    -2.11027    
O8       O      0.680833333333     0.081825000000     0.379733333333    -2.14515    
O9       O      0.763850000000     0.239225000000     0.446166666667    -2.1531     
O10      O      0.693966666667     0.058175000000     0.447500000000    -2.03156    
O11      O      0.752666666667     0.082150000000     0.405266666667    -2.04589    
O12      O      0.704300000000     0.164075000000     0.352866666667    -2.0736     
O13      O      0.808666666667     0.227300000000     0.354000000000    -2.09726    
O14      O      0.818283333333     0.019850000000     0.402033333333    -2.102      
O15      O      0.761383333333     0.048025000000     0.528300000000    -0.520708   
O16      O      0.829800000000     0.196975000000     0.421833333333    -2.05077    
O17      O      0.680150000000     0.127925000000     0.418066666667    -1.69458    
O18      O      0.777383333333     0.119575000000     0.338400000000    -1.59732    
O19      O      0.793716666667     0.050850000000     0.334733333333    -1.9087     
O20      O      0.678466666667     0.055100000000     0.540533333333    -0.431647   
Al1      Al     0.827016666667     0.177550000000     0.718026666667     7.5946     
Al2      Al     0.714133333333     0.008225000000     0.800740000000     6.93312    
Al3      Al     0.797116666667     0.069425000000     0.706733333333     7.41374    
Al4      Al     0.743633333333     0.239600000000     0.955883333333     7.09767    
P1       P      0.812050000000     0.012275000000     0.990620000000     1.79287    
P2       P      0.726850000000     0.025225000000     0.872700000000     1.13829    
P3       P      0.701683333333     0.087675000000     0.745210000000     1.67632    
P4       P      0.755150000000     0.159450000000     0.678613333333     1.67064    
P5       P      0.813116666667     0.235225000000     0.766020000000     1.81724    
O1       O      0.723016666667     0.001550000000     0.846633333333    -1.89748    
O2       O      0.735600000000     0.246150000000     0.910366666667    -1.9743     
O3       O      0.674866666667     0.232250000000     0.798566666667    -2.00422    
O4       O      0.783450000000     0.014625000000     0.958733333333    -2.04935    
O5       O      0.775866666667     0.165600000000     0.710233333333    -2.14011    
O6       O      0.694616666667     0.011400000000     0.977200000000    -2.12105    
O7       O      0.761600000000     0.190125000000     0.975900000000    -2.11169    
O8       O      0.680833333333     0.081825000000     0.713066666667    -2.14516    
O9       O      0.763850000000     0.239225000000     0.779500000000    -2.15309    
O10      O      0.693966666667     0.058175000000     0.780833333333    -2.03156    
O11      O      0.752666666667     0.082150000000     0.738600000000    -2.0459     
O12      O      0.704300000000     0.164075000000     0.686200000000    -2.0736     
O13      O      0.808666666667     0.227300000000     0.687333333333    -2.09727    
O14      O      0.818283333333     0.019850000000     0.735366666667    -2.102      
O15      O      0.761383333333     0.048025000000     0.861633333333    -0.520749   
O16      O      0.829800000000     0.196975000000     0.755166666667    -2.0508     
O17      O      0.680150000000     0.127925000000     0.751400000000    -1.69461    
O18      O      0.777383333333     0.119575000000     0.671733333333    -1.59732    
O19      O      0.793716666667     0.050850000000     0.668066666667    -1.9087     
O20      O      0.678466666667     0.055100000000     0.873866666667    -0.431753   
Al1      Al     0.827016666667     0.427550000000     0.051360000000     7.59424    
Al2      Al     0.714133333333     0.258225000000     0.134073333333     6.93819    
Al3      Al     0.797116666667     0.319425000000     0.040066666667     7.41318    
Al4      Al     0.743633333333     0.489600000000     0.289216666667     7.10089    
P1       P      0.812050000000     0.262275000000     0.323953333333     1.79737    
P2       P      0.726850000000     0.275225000000     0.206033333333     1.13895    
P3       P      0.701683333333     0.337675000000     0.078543333333     1.67646    
P4       P      0.755150000000     0.409450000000     0.011946666667     1.67232    
P5       P      0.813116666667     0.485225000000     0.099353333333     1.81717    
O1       O      0.723016666667     0.251550000000     0.179966666667    -1.89829    
O2       O      0.735600000000     0.496150000000     0.243700000000    -1.97489    
O3       O      0.674866666667     0.482250000000     0.131900000000    -2.00419    
O4       O      0.783450000000     0.264625000000     0.292066666667    -2.04837    
O5       O      0.775866666667     0.415600000000     0.043566666667    -2.13999    
O6       O      0.694616666667     0.261400000000     0.310533333333    -2.1196     
O7       O      0.761600000000     0.440125000000     0.309233333333    -2.11025    
O8       O      0.680833333333     0.331825000000     0.046400000000    -2.14478    
O9       O      0.763850000000     0.489225000000     0.112833333333    -2.15304    
O10      O      0.693966666667     0.308175000000     0.114166666667    -2.03258    
O11      O      0.752666666667     0.332150000000     0.071933333333    -2.04582    
O12      O      0.704300000000     0.414075000000     0.019533333333    -2.07297    
O13      O      0.808666666667     0.477300000000     0.020666666667    -2.09473    
O14      O      0.818283333333     0.269850000000     0.068700000000    -2.10125    
O15      O      0.761383333333     0.298025000000     0.194966666667    -0.520709   
O16      O      0.829800000000     0.446975000000     0.088500000000    -2.05067    
O17      O      0.680150000000     0.377925000000     0.084733333333    -1.69458    
O18      O      0.777383333333     0.369575000000     0.005066666667    -1.59665    
O19      O      0.793716666667     0.300850000000     0.001400000000    -1.90605    
O20      O      0.678466666667     0.305100000000     0.207200000000    -0.431605   
Al1      Al     0.827016666667     0.427550000000     0.384693333333     7.5946     
Al2      Al     0.714133333333     0.258225000000     0.467406666667     6.93827    
Al3      Al     0.797116666667     0.319425000000     0.373400000000     7.41383    
Al4      Al     0.743633333333     0.489600000000     0.622550000000     7.10101    
P1       P      0.812050000000     0.262275000000     0.657286666667     1.79739    
P2       P      0.726850000000     0.275225000000     0.539366666667     1.13897    
P3       P      0.701683333333     0.337675000000     0.411876666667     1.67656    
P4       P      0.755150000000     0.409450000000     0.345280000000     1.67063    
P5       P      0.813116666667     0.485225000000     0.432686666667     1.81723    
O1       O      0.723016666667     0.251550000000     0.513300000000    -1.89829    
O2       O      0.735600000000     0.496150000000     0.577033333333    -1.9749     
O3       O      0.674866666667     0.482250000000     0.465233333333    -2.00421    
O4       O      0.783450000000     0.264625000000     0.625400000000    -2.04838    
O5       O      0.775866666667     0.415600000000     0.376900000000    -2.14012    
O6       O      0.694616666667     0.261400000000     0.643866666667    -2.11961    
O7       O      0.761600000000     0.440125000000     0.642566666667    -2.11026    
O8       O      0.680833333333     0.331825000000     0.379733333333    -2.14521    
O9       O      0.763850000000     0.489225000000     0.446166666667    -2.1531     
O10      O      0.693966666667     0.308175000000     0.447500000000    -2.0326     
O11      O      0.752666666667     0.332150000000     0.405266666667    -2.04596    
O12      O      0.704300000000     0.414075000000     0.352866666667    -2.07362    
O13      O      0.808666666667     0.477300000000     0.354000000000    -2.09727    
O14      O      0.818283333333     0.269850000000     0.402033333333    -2.10159    
O15      O      0.761383333333     0.298025000000     0.528300000000    -0.520689   
O16      O      0.829800000000     0.446975000000     0.421833333333    -2.05079    
O17      O      0.680150000000     0.377925000000     0.418066666667    -1.69464    
O18      O      0.777383333333     0.369575000000     0.338400000000    -1.59733    
O19      O      0.793716666667     0.300850000000     0.334733333333    -1.90865    
O20      O      0.678466666667     0.305100000000     0.540533333333    -0.431583   
Al1      Al     0.827016666667     0.427550000000     0.718026666667     7.59468    
Al2      Al     0.714133333333     0.258225000000     0.800740000000     6.93821    
Al3      Al     0.797116666667     0.319425000000     0.706733333333     7.41391    
Al4      Al     0.743633333333     0.489600000000     0.955883333333     7.09766    
P1       P      0.812050000000     0.262275000000     0.990620000000     1.79292    
P2       P      0.726850000000     0.275225000000     0.872700000000     1.1388     
P3       P      0.701683333333     0.337675000000     0.745210000000     1.67657    
P4       P      0.755150000000     0.409450000000     0.678613333333     1.67065    
P5       P      0.813116666667     0.485225000000     0.766020000000     1.81724    
O1       O      0.723016666667     0.251550000000     0.846633333333    -1.89831    
O2       O      0.735600000000     0.496150000000     0.910366666667    -1.9743     
O3       O      0.674866666667     0.482250000000     0.798566666667    -2.00422    
O4       O      0.783450000000     0.264625000000     0.958733333333    -2.04772    
O5       O      0.775866666667     0.415600000000     0.710233333333    -2.14013    
O6       O      0.694616666667     0.261400000000     0.977200000000    -2.11944    
O7       O      0.761600000000     0.440125000000     0.975900000000    -2.1117     
O8       O      0.680833333333     0.331825000000     0.713066666667    -2.14522    
O9       O      0.763850000000     0.489225000000     0.779500000000    -2.15309    
O10      O      0.693966666667     0.308175000000     0.780833333333    -2.03259    
O11      O      0.752666666667     0.332150000000     0.738600000000    -2.04597    
O12      O      0.704300000000     0.414075000000     0.686200000000    -2.07363    
O13      O      0.808666666667     0.477300000000     0.687333333333    -2.09728    
O14      O      0.818283333333     0.269850000000     0.735366666667    -2.10159    
O15      O      0.761383333333     0.298025000000     0.861633333333    -0.520731   
O16      O      0.829800000000     0.446975000000     0.755166666667    -2.05082    
O17      O      0.680150000000     0.377925000000     0.751400000000    -1.69466    
O18      O      0.777383333333     0.369575000000     0.671733333333    -1.59733    
O19      O      0.793716666667     0.300850000000     0.668066666667    -1.90865    
O20      O      0.678466666667     0.305100000000     0.873866666667    -0.431691   
Al1      Al     0.827016666667     0.677550000000     0.051360000000     7.59422    
Al2      Al     0.714133333333     0.508225000000     0.134073333333     6.93818    
Al3      Al     0.797116666667     0.569425000000     0.040066666667     7.41316    
Al4      Al     0.743633333333     0.739600000000     0.289216666667     7.10088    
P1       P      0.812050000000     0.512275000000     0.323953333333     1.79737    
P2       P      0.726850000000     0.525225000000     0.206033333333     1.13895    
P3       P      0.701683333333     0.587675000000     0.078543333333     1.67646    
P4       P      0.755150000000     0.659450000000     0.011946666667     1.67232    
P5       P      0.813116666667     0.735225000000     0.099353333333     1.81717    
O1       O      0.723016666667     0.501550000000     0.179966666667    -1.89828    
O2       O      0.735600000000     0.746150000000     0.243700000000    -1.97489    
O3       O      0.674866666667     0.732250000000     0.131900000000    -2.00419    
O4       O      0.783450000000     0.514625000000     0.292066666667    -2.04837    
O5       O      0.775866666667     0.665600000000     0.043566666667    -2.13999    
O6       O      0.694616666667     0.511400000000     0.310533333333    -2.1196     
O7       O      0.761600000000     0.690125000000     0.309233333333    -2.11025    
O8       O      0.680833333333     0.581825000000     0.046400000000    -2.14477    
O9       O      0.763850000000     0.739225000000     0.112833333333    -2.15304    
O10      O      0.693966666667     0.558175000000     0.114166666667    -2.03258    
O11      O      0.752666666667     0.582150000000     0.071933333333    -2.04582    
O12      O      0.704300000000     0.664075000000     0.019533333333    -2.07297    
O13      O      0.808666666667     0.727300000000     0.020666666667    -2.09472    
O14      O      0.818283333333     0.519850000000     0.068700000000    -2.10125    
O15      O      0.761383333333     0.548025000000     0.194966666667    -0.520712   
O16      O      0.829800000000     0.696975000000     0.088500000000    -2.05067    
O17      O      0.680150000000     0.627925000000     0.084733333333    -1.69458    
O18      O      0.777383333333     0.619575000000     0.005066666667    -1.59665    
O19      O      0.793716666667     0.550850000000     0.001400000000    -1.90604    
O20      O      0.678466666667     0.555100000000     0.207200000000    -0.431609   
Al1      Al     0.827016666667     0.677550000000     0.384693333333     7.59458    
Al2      Al     0.714133333333     0.508225000000     0.467406666667     6.93827    
Al3      Al     0.797116666667     0.569425000000     0.373400000000     7.41381    
Al4      Al     0.743633333333     0.739600000000     0.622550000000     7.101      
P1       P      0.812050000000     0.512275000000     0.657286666667     1.79739    
P2       P      0.726850000000     0.525225000000     0.539366666667     1.13897    
P3       P      0.701683333333     0.587675000000     0.411876666667     1.67656    
P4       P      0.755150000000     0.659450000000     0.345280000000     1.67062    
P5       P      0.813116666667     0.735225000000     0.432686666667     1.81723    
O1       O      0.723016666667     0.501550000000     0.513300000000    -1.89828    
O2       O      0.735600000000     0.746150000000     0.577033333333    -1.9749     
O3       O      0.674866666667     0.732250000000     0.465233333333    -2.00421    
O4       O      0.783450000000     0.514625000000     0.625400000000    -2.04838    
O5       O      0.775866666667     0.665600000000     0.376900000000    -2.14012    
O6       O      0.694616666667     0.511400000000     0.643866666667    -2.11962    
O7       O      0.761600000000     0.690125000000     0.642566666667    -2.11026    
O8       O      0.680833333333     0.581825000000     0.379733333333    -2.14521    
O9       O      0.763850000000     0.739225000000     0.446166666667    -2.1531     
O10      O      0.693966666667     0.558175000000     0.447500000000    -2.0326     
O11      O      0.752666666667     0.582150000000     0.405266666667    -2.04596    
O12      O      0.704300000000     0.664075000000     0.352866666667    -2.07362    
O13      O      0.808666666667     0.727300000000     0.354000000000    -2.09727    
O14      O      0.818283333333     0.519850000000     0.402033333333    -2.10159    
O15      O      0.761383333333     0.548025000000     0.528300000000    -0.520693   
O16      O      0.829800000000     0.696975000000     0.421833333333    -2.05079    
O17      O      0.680150000000     0.627925000000     0.418066666667    -1.69464    
O18      O      0.777383333333     0.619575000000     0.338400000000    -1.59734    
O19      O      0.793716666667     0.550850000000     0.334733333333    -1.90865    
O20      O      0.678466666667     0.555100000000     0.540533333333    -0.431587   
Al1      Al     0.827016666667     0.677550000000     0.718026666667     7.59467    
Al2      Al     0.714133333333     0.508225000000     0.800740000000     6.9382     
Al3      Al     0.797116666667     0.569425000000     0.706733333333     7.4139     
Al4      Al     0.743633333333     0.739600000000     0.955883333333     7.09764    
P1       P      0.812050000000     0.512275000000     0.990620000000     1.79291    
P2       P      0.726850000000     0.525225000000     0.872700000000     1.1388     
P3       P      0.701683333333     0.587675000000     0.745210000000     1.67657    
P4       P      0.755150000000     0.659450000000     0.678613333333     1.67065    
P5       P      0.813116666667     0.735225000000     0.766020000000     1.81724    
O1       O      0.723016666667     0.501550000000     0.846633333333    -1.8983     
O2       O      0.735600000000     0.746150000000     0.910366666667    -1.9743     
O3       O      0.674866666667     0.732250000000     0.798566666667    -2.00423    
O4       O      0.783450000000     0.514625000000     0.958733333333    -2.04772    
O5       O      0.775866666667     0.665600000000     0.710233333333    -2.14013    
O6       O      0.694616666667     0.511400000000     0.977200000000    -2.11945    
O7       O      0.761600000000     0.690125000000     0.975900000000    -2.1117     
O8       O      0.680833333333     0.581825000000     0.713066666667    -2.14522    
O9       O      0.763850000000     0.739225000000     0.779500000000    -2.1531     
O10      O      0.693966666667     0.558175000000     0.780833333333    -2.03259    
O11      O      0.752666666667     0.582150000000     0.738600000000    -2.04597    
O12      O      0.704300000000     0.664075000000     0.686200000000    -2.07362    
O13      O      0.808666666667     0.727300000000     0.687333333333    -2.09728    
O14      O      0.818283333333     0.519850000000     0.735366666667    -2.1016     
O15      O      0.761383333333     0.548025000000     0.861633333333    -0.520735   
O16      O      0.829800000000     0.696975000000     0.755166666667    -2.05082    
O17      O      0.680150000000     0.627925000000     0.751400000000    -1.69466    
O18      O      0.777383333333     0.619575000000     0.671733333333    -1.59733    
O19      O      0.793716666667     0.550850000000     0.668066666667    -1.90865    
O20      O      0.678466666667     0.555100000000     0.873866666667    -0.431696   
Al1      Al     0.827016666667     0.927550000000     0.051360000000     7.59452    
Al2      Al     0.714133333333     0.758225000000     0.134073333333     6.93818    
Al3      Al     0.797116666667     0.819425000000     0.040066666667     7.41324    
Al4      Al     0.743633333333     0.989600000000     0.289216666667     7.1067     
P1       P      0.812050000000     0.762275000000     0.323953333333     1.79737    
P2       P      0.726850000000     0.775225000000     0.206033333333     1.13895    
P3       P      0.701683333333     0.837675000000     0.078543333333     1.67647    
P4       P      0.755150000000     0.909450000000     0.011946666667     1.67261    
P5       P      0.813116666667     0.985225000000     0.099353333333     1.81735    
O1       O      0.723016666667     0.751550000000     0.179966666667    -1.89829    
O2       O      0.735600000000     0.996150000000     0.243700000000    -1.97536    
O3       O      0.674866666667     0.982250000000     0.131900000000    -2.00255    
O4       O      0.783450000000     0.764625000000     0.292066666667    -2.04837    
O5       O      0.775866666667     0.915600000000     0.043566666667    -2.14008    
O6       O      0.694616666667     0.761400000000     0.310533333333    -2.1196     
O7       O      0.761600000000     0.940125000000     0.309233333333    -2.11144    
O8       O      0.680833333333     0.831825000000     0.046400000000    -2.1448     
O9       O      0.763850000000     0.989225000000     0.112833333333    -2.15134    
O10      O      0.693966666667     0.808175000000     0.114166666667    -2.03257    
O11      O      0.752666666667     0.832150000000     0.071933333333    -2.04584    
O12      O      0.704300000000     0.914075000000     0.019533333333    -2.07308    
O13      O      0.808666666667     0.977300000000     0.020666666667    -2.0943     
O14      O      0.818283333333     0.769850000000     0.068700000000    -2.10127    
O15      O      0.761383333333     0.798025000000     0.194966666667    -0.520695   
O16      O      0.829800000000     0.946975000000     0.088500000000    -2.05065    
O17      O      0.680150000000     0.877925000000     0.084733333333    -1.69462    
O18      O      0.777383333333     0.869575000000     0.005066666667    -1.5967     
O19      O      0.793716666667     0.800850000000     0.001400000000    -1.90605    
O20      O      0.678466666667     0.805100000000     0.207200000000    -0.431586   
Al1      Al     0.827016666667     0.927550000000     0.384693333333     7.59489    
Al2      Al     0.714133333333     0.758225000000     0.467406666667     6.93826    
Al3      Al     0.797116666667     0.819425000000     0.373400000000     7.4139     
Al4      Al     0.743633333333     0.989600000000     0.622550000000     7.10677    
P1       P      0.812050000000     0.762275000000     0.657286666667     1.79739    
P2       P      0.726850000000     0.775225000000     0.539366666667     1.13897    
P3       P      0.701683333333     0.837675000000     0.411876666667     1.67657    
P4       P      0.755150000000     0.909450000000     0.345280000000     1.67092    
P5       P      0.813116666667     0.985225000000     0.432686666667     1.81741    
O1       O      0.723016666667     0.751550000000     0.513300000000    -1.89829    
O2       O      0.735600000000     0.996150000000     0.577033333333    -1.97536    
O3       O      0.674866666667     0.982250000000     0.465233333333    -2.00258    
O4       O      0.783450000000     0.764625000000     0.625400000000    -2.04838    
O5       O      0.775866666667     0.915600000000     0.376900000000    -2.14021    
O6       O      0.694616666667     0.761400000000     0.643866666667    -2.11961    
O7       O      0.761600000000     0.940125000000     0.642566666667    -2.11144    
O8       O      0.680833333333     0.831825000000     0.379733333333    -2.14524    
O9       O      0.763850000000     0.989225000000     0.446166666667    -2.15142    
O10      O      0.693966666667     0.808175000000     0.447500000000    -2.0326     
O11      O      0.752666666667     0.832150000000     0.405266666667    -2.04599    
O12      O      0.704300000000     0.914075000000     0.352866666667    -2.07373    
O13      O      0.808666666667     0.977300000000     0.354000000000    -2.09684    
O14      O      0.818283333333     0.769850000000     0.402033333333    -2.10161    
O15      O      0.761383333333     0.798025000000     0.528300000000    -0.520676   
O16      O      0.829800000000     0.946975000000     0.421833333333    -2.05077    
O17      O      0.680150000000     0.877925000000     0.418066666667    -1.69468    
O18      O      0.777383333333     0.869575000000     0.338400000000    -1.59738    
O19      O      0.793716666667     0.800850000000     0.334733333333    -1.90867    
O20      O      0.678466666667     0.805100000000     0.540533333333    -0.431565   
Al1      Al     0.827016666667     0.927550000000     0.718026666667     7.59497    
Al2      Al     0.714133333333     0.758225000000     0.800740000000     6.93819    
Al3      Al     0.797116666667     0.819425000000     0.706733333333     7.41398    
Al4      Al     0.743633333333     0.989600000000     0.955883333333     7.1033     
P1       P      0.812050000000     0.762275000000     0.990620000000     1.7929     
P2       P      0.726850000000     0.775225000000     0.872700000000     1.13879    
P3       P      0.701683333333     0.837675000000     0.745210000000     1.67658    
P4       P      0.755150000000     0.909450000000     0.678613333333     1.67094    
P5       P      0.813116666667     0.985225000000     0.766020000000     1.81742    
O1       O      0.723016666667     0.751550000000     0.846633333333    -1.8983     
O2       O      0.735600000000     0.996150000000     0.910366666667    -1.97475    
O3       O      0.674866666667     0.982250000000     0.798566666667    -2.00263    
O4       O      0.783450000000     0.764625000000     0.958733333333    -2.04771    
O5       O      0.775866666667     0.915600000000     0.710233333333    -2.14022    
O6       O      0.694616666667     0.761400000000     0.977200000000    -2.11944    
O7       O      0.761600000000     0.940125000000     0.975900000000    -2.11286    
O8       O      0.680833333333     0.831825000000     0.713066666667    -2.14525    
O9       O      0.763850000000     0.989225000000     0.779500000000    -2.15144    
O10      O      0.693966666667     0.808175000000     0.780833333333    -2.03258    
O11      O      0.752666666667     0.832150000000     0.738600000000    -2.046      
O12      O      0.704300000000     0.914075000000     0.686200000000    -2.07373    
O13      O      0.808666666667     0.977300000000     0.687333333333    -2.09686    
O14      O      0.818283333333     0.769850000000     0.735366666667    -2.10161    
O15      O      0.761383333333     0.798025000000     0.861633333333    -0.520718   
O16      O      0.829800000000     0.946975000000     0.755166666667    -2.0508     
O17      O      0.680150000000     0.877925000000     0.751400000000    -1.6947     
O18      O      0.777383333333     0.869575000000     0.671733333333    -1.59738    
O19      O      0.793716666667     0.800850000000     0.668066666667    -1.90867    
O20      O      0.678466666667     0.805100000000     0.873866666667    -0.431673   
Al1      Al     0.993683333333     0.177550000000     0.051360000000     7.57569    
Al2      Al     0.880800000000     0.008225000000     0.134073333333     6.93049    
Al3      Al     0.963783333333     0.069425000000     0.040066666667     7.40138    
Al4      Al     0.910300000000     0.239600000000     0.289216666667     7.09838    
P1       P      0.978716666667     0.012275000000     0.323953333333     1.79344    
P2       P      0.893516666667     0.025225000000     0.206033333333     1.13819    
P3       P      0.868350000000     0.087675000000     0.078543333333     1.67557    
P4       P      0.921816666667     0.159450000000     0.011946666667     1.67097    
P5       P      0.979783333333     0.235225000000     0.099353333333     1.81346    
O1       O      0.889683333333     0.001550000000     0.179966666667    -1.89727    
O2       O      0.902266666667     0.246150000000     0.243700000000    -1.97472    
O3       O      0.841533333333     0.232250000000     0.131900000000    -2.00367    
O4       O      0.950116666667     0.014625000000     0.292066666667    -2.04978    
O5       O      0.942533333333     0.165600000000     0.043566666667    -2.13691    
O6       O      0.861283333333     0.011400000000     0.310533333333    -2.12057    
O7       O      0.928266666667     0.190125000000     0.309233333333    -2.10991    
O8       O      0.847500000000     0.081825000000     0.046400000000    -2.14422    
O9       O      0.930516666667     0.239225000000     0.112833333333    -2.15216    
O10      O      0.860633333333     0.058175000000     0.114166666667    -2.03094    
O11      O      0.919333333333     0.082150000000     0.071933333333    -2.04382    
O12      O      0.870966666667     0.164075000000     0.019533333333    -2.07241    
O13      O      0.975333333333     0.227300000000     0.020666666667    -2.09154    
O14      O      0.984950000000     0.019850000000     0.068700000000    -2.10038    
O15      O      0.928050000000     0.048025000000     0.194966666667    -0.521887   
O16      O      0.996466666667     0.196975000000     0.088500000000    -2.04811    
O17      O      0.846816666667     0.127925000000     0.084733333333    -1.6943     
O18      O      0.944050000000     0.119575000000     0.005066666667    -1.59551    
O19      O      0.960383333333     0.050850000000     0.001400000000    -1.90407    
O20      O      0.845133333333     0.055100000000     0.207200000000    -0.43166    
Al1      Al     0.993683333333     0.177550000000     0.384693333333     7.57605    
Al2      Al     0.880800000000     0.008225000000     0.467406666667     6.93061    
Al3      Al     0.963783333333     0.069425000000     0.373400000000     7.40203    
Al4      Al     0.910300000000     0.239600000000     0.622550000000     7.09849    
P1       P      0.978716666667     0.012275000000     0.657286666667     1.79347    
P2       P      0.893516666667     0.025225000000     0.539366666667     1.13821    
P3       P      0.868350000000     0.087675000000     0.411876666667     1.67567    
P4       P      0.921816666667     0.159450000000     0.345280000000     1.66929    
P5       P      0.979783333333     0.235225000000     0.432686666667     1.81352    
O1       O      0.889683333333     0.001550000000     0.513300000000    -1.89728    
O2       O      0.902266666667     0.246150000000     0.577033333333    -1.97473    
O3       O      0.841533333333     0.232250000000     0.465233333333    -2.00369    
O4       O      0.950116666667     0.014625000000     0.625400000000    -2.04978    
O5       O      0.942533333333     0.165600000000     0.376900000000    -2.13703    
O6       O      0.861283333333     0.011400000000     0.643866666667    -2.12057    
O7       O      0.928266666667     0.190125000000     0.642566666667    -2.10992    
O8       O      0.847500000000     0.081825000000     0.379733333333    -2.14466    
O9       O      0.930516666667     0.239225000000     0.446166666667    -2.15222    
O10      O      0.860633333333     0.058175000000     0.447500000000    -2.03098    
O11      O      0.919333333333     0.082150000000     0.405266666667    -2.04396    
O12      O      0.870966666667     0.164075000000     0.352866666667    -2.07305    
O13      O      0.975333333333     0.227300000000     0.354000000000    -2.09408    
O14      O      0.984950000000     0.019850000000     0.402033333333    -2.10072    
O15      O      0.928050000000     0.048025000000     0.528300000000    -0.521868   
O16      O      0.996466666667     0.196975000000     0.421833333333    -2.04823    
O17      O      0.846816666667     0.127925000000     0.418066666667    -1.69436    
O18      O      0.944050000000     0.119575000000     0.338400000000    -1.59619    
O19      O      0.960383333333     0.050850000000     0.334733333333    -1.90666    
O20      O      0.845133333333     0.055100000000     0.540533333333    -0.431638   
Al1      Al     0.993683333333     0.177550000000     0.718026666667     7.57613    
Al2      Al     0.880800000000     0.008225000000     0.800740000000     6.93063    
Al3      Al     0.963783333333     0.069425000000     0.706733333333     7.40212    
Al4      Al     0.910300000000     0.239600000000     0.955883333333     7.09516    
P1       P      0.978716666667     0.012275000000     0.990620000000     1.789      
P2       P      0.893516666667     0.025225000000     0.872700000000     1.13805    
P3       P      0.868350000000     0.087675000000     0.745210000000     1.67569    
P4       P      0.921816666667     0.159450000000     0.678613333333     1.66931    
P5       P      0.979783333333     0.235225000000     0.766020000000     1.81353    
O1       O      0.889683333333     0.001550000000     0.846633333333    -1.89731    
O2       O      0.902266666667     0.246150000000     0.910366666667    -1.97413    
O3       O      0.841533333333     0.232250000000     0.798566666667    -2.00371    
O4       O      0.950116666667     0.014625000000     0.958733333333    -2.04908    
O5       O      0.942533333333     0.165600000000     0.710233333333    -2.13704    
O6       O      0.861283333333     0.011400000000     0.977200000000    -2.12036    
O7       O      0.928266666667     0.190125000000     0.975900000000    -2.11135    
O8       O      0.847500000000     0.081825000000     0.713066666667    -2.14466    
O9       O      0.930516666667     0.239225000000     0.779500000000    -2.15222    
O10      O      0.860633333333     0.058175000000     0.780833333333    -2.03098    
O11      O      0.919333333333     0.082150000000     0.738600000000    -2.04397    
O12      O      0.870966666667     0.164075000000     0.686200000000    -2.07306    
O13      O      0.975333333333     0.227300000000     0.687333333333    -2.09409    
O14      O      0.984950000000     0.019850000000     0.735366666667    -2.10072    
O15      O      0.928050000000     0.048025000000     0.861633333333    -0.521908   
O16      O      0.996466666667     0.196975000000     0.755166666667    -2.04825    
O17      O      0.846816666667     0.127925000000     0.751400000000    -1.69438    
O18      O      0.944050000000     0.119575000000     0.671733333333    -1.59619    
O19      O      0.960383333333     0.050850000000     0.668066666667    -1.90667    
O20      O      0.845133333333     0.055100000000     0.873866666667    -0.431743   
Al1      Al     0.993683333333     0.427550000000     0.051360000000     7.57574    
Al2      Al     0.880800000000     0.258225000000     0.134073333333     6.93567    
Al3      Al     0.963783333333     0.319425000000     0.040066666667     7.40153    
Al4      Al     0.910300000000     0.489600000000     0.289216666667     7.09838    
P1       P      0.978716666667     0.262275000000     0.323953333333     1.79348    
P2       P      0.893516666667     0.275225000000     0.206033333333     1.13872    
P3       P      0.868350000000     0.337675000000     0.078543333333     1.67582    
P4       P      0.921816666667     0.409450000000     0.011946666667     1.67099    
P5       P      0.979783333333     0.485225000000     0.099353333333     1.81346    
O1       O      0.889683333333     0.251550000000     0.179966666667    -1.89811    
O2       O      0.902266666667     0.496150000000     0.243700000000    -1.97472    
O3       O      0.841533333333     0.482250000000     0.131900000000    -2.00367    
O4       O      0.950116666667     0.264625000000     0.292066666667    -2.04811    
O5       O      0.942533333333     0.415600000000     0.043566666667    -2.13693    
O6       O      0.861283333333     0.261400000000     0.310533333333    -2.11891    
O7       O      0.928266666667     0.440125000000     0.309233333333    -2.10991    
O8       O      0.847500000000     0.331825000000     0.046400000000    -2.14428    
O9       O      0.930516666667     0.489225000000     0.112833333333    -2.15216    
O10      O      0.860633333333     0.308175000000     0.114166666667    -2.03199    
O11      O      0.919333333333     0.332150000000     0.071933333333    -2.04389    
O12      O      0.870966666667     0.414075000000     0.019533333333    -2.07243    
O13      O      0.975333333333     0.477300000000     0.020666666667    -2.09154    
O14      O      0.984950000000     0.269850000000     0.068700000000    -2.09997    
O15      O      0.928050000000     0.298025000000     0.194966666667    -0.521871   
O16      O      0.996466666667     0.446975000000     0.088500000000    -2.04812    
O17      O      0.846816666667     0.377925000000     0.084733333333    -1.69436    
O18      O      0.944050000000     0.369575000000     0.005066666667    -1.59552    
O19      O      0.960383333333     0.300850000000     0.001400000000    -1.90401    
O20      O      0.845133333333     0.305100000000     0.207200000000    -0.431595   
Al1      Al     0.993683333333     0.427550000000     0.384693333333     7.5761     
Al2      Al     0.880800000000     0.258225000000     0.467406666667     6.93575    
Al3      Al     0.963783333333     0.319425000000     0.373400000000     7.40218    
Al4      Al     0.910300000000     0.489600000000     0.622550000000     7.09849    
P1       P      0.978716666667     0.262275000000     0.657286666667     1.79351    
P2       P      0.893516666667     0.275225000000     0.539366666667     1.13873    
P3       P      0.868350000000     0.337675000000     0.411876666667     1.67592    
P4       P      0.921816666667     0.409450000000     0.345280000000     1.66929    
P5       P      0.979783333333     0.485225000000     0.432686666667     1.81352    
O1       O      0.889683333333     0.251550000000     0.513300000000    -1.89811    
O2       O      0.902266666667     0.496150000000     0.577033333333    -1.97473    
O3       O      0.841533333333     0.482250000000     0.465233333333    -2.00369    
O4       O      0.950116666667     0.264625000000     0.625400000000    -2.04812    
O5       O      0.942533333333     0.415600000000     0.376900000000    -2.13705    
O6       O      0.861283333333     0.261400000000     0.643866666667    -2.11892    
O7       O      0.928266666667     0.440125000000     0.642566666667    -2.10992    
O8       O      0.847500000000     0.331825000000     0.379733333333    -2.14471    
O9       O      0.930516666667     0.489225000000     0.446166666667    -2.15222    
O10      O      0.860633333333     0.308175000000     0.447500000000    -2.03202    
O11      O      0.919333333333     0.332150000000     0.405266666667    -2.04403    
O12      O      0.870966666667     0.414075000000     0.352866666667    -2.07307    
O13      O      0.975333333333     0.477300000000     0.354000000000    -2.09409    
O14      O      0.984950000000     0.269850000000     0.402033333333    -2.10031    
O15      O      0.928050000000     0.298025000000     0.528300000000    -0.521852   
O16      O      0.996466666667     0.446975000000     0.421833333333    -2.04824    
O17      O      0.846816666667     0.377925000000     0.418066666667    -1.69442    
O18      O      0.944050000000     0.369575000000     0.338400000000    -1.59621    
O19      O      0.960383333333     0.300850000000     0.334733333333    -1.90661    
O20      O      0.845133333333     0.305100000000     0.540533333333    -0.431574   
Al1      Al     0.993683333333     0.427550000000     0.718026666667     7.57618    
Al2      Al     0.880800000000     0.258225000000     0.800740000000     6.93569    
Al3      Al     0.963783333333     0.319425000000     0.706733333333     7.40226    
Al4      Al     0.910300000000     0.489600000000     0.955883333333     7.09515    
P1       P      0.978716666667     0.262275000000     0.990620000000     1.78904    
P2       P      0.893516666667     0.275225000000     0.872700000000     1.13856    
P3       P      0.868350000000     0.337675000000     0.745210000000     1.67593    
P4       P      0.921816666667     0.409450000000     0.678613333333     1.66932    
P5       P      0.979783333333     0.485225000000     0.766020000000     1.81353    
O1       O      0.889683333333     0.251550000000     0.846633333333    -1.89813    
O2       O      0.902266666667     0.496150000000     0.910366666667    -1.97413    
O3       O      0.841533333333     0.482250000000     0.798566666667    -2.0037     
O4       O      0.950116666667     0.264625000000     0.958733333333    -2.04746    
O5       O      0.942533333333     0.415600000000     0.710233333333    -2.13706    
O6       O      0.861283333333     0.261400000000     0.977200000000    -2.11875    
O7       O      0.928266666667     0.440125000000     0.975900000000    -2.11135    
O8       O      0.847500000000     0.331825000000     0.713066666667    -2.14472    
O9       O      0.930516666667     0.489225000000     0.779500000000    -2.15222    
O10      O      0.860633333333     0.308175000000     0.780833333333    -2.032      
O11      O      0.919333333333     0.332150000000     0.738600000000    -2.04404    
O12      O      0.870966666667     0.414075000000     0.686200000000    -2.07308    
O13      O      0.975333333333     0.477300000000     0.687333333333    -2.0941     
O14      O      0.984950000000     0.269850000000     0.735366666667    -2.10031    
O15      O      0.928050000000     0.298025000000     0.861633333333    -0.521894   
O16      O      0.996466666667     0.446975000000     0.755166666667    -2.04827    
O17      O      0.846816666667     0.377925000000     0.751400000000    -1.69444    
O18      O      0.944050000000     0.369575000000     0.671733333333    -1.5962     
O19      O      0.960383333333     0.300850000000     0.668066666667    -1.90661    
O20      O      0.845133333333     0.305100000000     0.873866666667    -0.431682   
Al1      Al     0.993683333333     0.677550000000     0.051360000000     7.57572    
Al2      Al     0.880800000000     0.508225000000     0.134073333333     6.93566    
Al3      Al     0.963783333333     0.569425000000     0.040066666667     7.40151    
Al4      Al     0.910300000000     0.739600000000     0.289216666667     7.09836    
P1       P      0.978716666667     0.512275000000     0.323953333333     1.79348    
P2       P      0.893516666667     0.525225000000     0.206033333333     1.13871    
P3       P      0.868350000000     0.587675000000     0.078543333333     1.67582    
P4       P      0.921816666667     0.659450000000     0.011946666667     1.67099    
P5       P      0.979783333333     0.735225000000     0.099353333333     1.81346    
O1       O      0.889683333333     0.501550000000     0.179966666667    -1.8981     
O2       O      0.902266666667     0.746150000000     0.243700000000    -1.97472    
O3       O      0.841533333333     0.732250000000     0.131900000000    -2.00367    
O4       O      0.950116666667     0.514625000000     0.292066666667    -2.04811    
O5       O      0.942533333333     0.665600000000     0.043566666667    -2.13692    
O6       O      0.861283333333     0.511400000000     0.310533333333    -2.11891    
O7       O      0.928266666667     0.690125000000     0.309233333333    -2.10991    
O8       O      0.847500000000     0.581825000000     0.046400000000    -2.14428    
O9       O      0.930516666667     0.739225000000     0.112833333333    -2.15216    
O10      O      0.860633333333     0.558175000000     0.114166666667    -2.03199    
O11      O      0.919333333333     0.582150000000     0.071933333333    -2.04389    
O12      O      0.870966666667     0.664075000000     0.019533333333    -2.07243    
O13      O      0.975333333333     0.727300000000     0.020666666667    -2.09154    
O14      O      0.984950000000     0.519850000000     0.068700000000    -2.09997    
O15      O      0.928050000000     0.548025000000     0.194966666667    -0.521876   
O16      O      0.996466666667     0.696975000000     0.088500000000    -2.04812    
O17      O      0.846816666667     0.627925000000     0.084733333333    -1.69436    
O18      O      0.944050000000     0.619575000000     0.005066666667    -1.59552    
O19      O      0.960383333333     0.550850000000     0.001400000000    -1.90401    
O20      O      0.845133333333     0.555100000000     0.207200000000    -0.4316     
Al1      Al     0.993683333333     0.677550000000     0.384693333333     7.57608    
Al2      Al     0.880800000000     0.508225000000     0.467406666667     6.93574    
Al3      Al     0.963783333333     0.569425000000     0.373400000000     7.40216    
Al4      Al     0.910300000000     0.739600000000     0.622550000000     7.09848    
P1       P      0.978716666667     0.512275000000     0.657286666667     1.79351    
P2       P      0.893516666667     0.525225000000     0.539366666667     1.13873    
P3       P      0.868350000000     0.587675000000     0.411876666667     1.67592    
P4       P      0.921816666667     0.659450000000     0.345280000000     1.66929    
P5       P      0.979783333333     0.735225000000     0.432686666667     1.81352    
O1       O      0.889683333333     0.501550000000     0.513300000000    -1.8981     
O2       O      0.902266666667     0.746150000000     0.577033333333    -1.97473    
O3       O      0.841533333333     0.732250000000     0.465233333333    -2.00369    
O4       O      0.950116666667     0.514625000000     0.625400000000    -2.04812    
O5       O      0.942533333333     0.665600000000     0.376900000000    -2.13705    
O6       O      0.861283333333     0.511400000000     0.643866666667    -2.11893    
O7       O      0.928266666667     0.690125000000     0.642566666667    -2.10992    
O8       O      0.847500000000     0.581825000000     0.379733333333    -2.14471    
O9       O      0.930516666667     0.739225000000     0.446166666667    -2.15222    
O10      O      0.860633333333     0.558175000000     0.447500000000    -2.03202    
O11      O      0.919333333333     0.582150000000     0.405266666667    -2.04403    
O12      O      0.870966666667     0.664075000000     0.352866666667    -2.07307    
O13      O      0.975333333333     0.727300000000     0.354000000000    -2.09409    
O14      O      0.984950000000     0.519850000000     0.402033333333    -2.10031    
O15      O      0.928050000000     0.548025000000     0.528300000000    -0.521856   
O16      O      0.996466666667     0.696975000000     0.421833333333    -2.04824    
O17      O      0.846816666667     0.627925000000     0.418066666667    -1.69442    
O18      O      0.944050000000     0.619575000000     0.338400000000    -1.59621    
O19      O      0.960383333333     0.550850000000     0.334733333333    -1.90661    
O20      O      0.845133333333     0.555100000000     0.540533333333    -0.431578   
Al1      Al     0.993683333333     0.677550000000     0.718026666667     7.57616    
Al2      Al     0.880800000000     0.508225000000     0.800740000000     6.93568    
Al3      Al     0.963783333333     0.569425000000     0.706733333333     7.40224    
Al4      Al     0.910300000000     0.739600000000     0.955883333333     7.09513    
P1       P      0.978716666667     0.512275000000     0.990620000000     1.78903    
P2       P      0.893516666667     0.525225000000     0.872700000000     1.13856    
P3       P      0.868350000000     0.587675000000     0.745210000000     1.67593    
P4       P      0.921816666667     0.659450000000     0.678613333333     1.66931    
P5       P      0.979783333333     0.735225000000     0.766020000000     1.81353    
O1       O      0.889683333333     0.501550000000     0.846633333333    -1.89812    
O2       O      0.902266666667     0.746150000000     0.910366666667    -1.97413    
O3       O      0.841533333333     0.732250000000     0.798566666667    -2.00371    
O4       O      0.950116666667     0.514625000000     0.958733333333    -2.04746    
O5       O      0.942533333333     0.665600000000     0.710233333333    -2.13706    
O6       O      0.861283333333     0.511400000000     0.977200000000    -2.11876    
O7       O      0.928266666667     0.690125000000     0.975900000000    -2.11136    
O8       O      0.847500000000     0.581825000000     0.713066666667    -2.14472    
O9       O      0.930516666667     0.739225000000     0.779500000000    -2.15222    
O10      O      0.860633333333     0.558175000000     0.780833333333    -2.032      
O11      O      0.919333333333     0.582150000000     0.738600000000    -2.04404    
O12      O      0.870966666667     0.664075000000     0.686200000000    -2.07308    
O13      O      0.975333333333     0.727300000000     0.687333333333    -2.0941     
O14      O      0.984950000000     0.519850000000     0.735366666667    -2.10031    
O15      O      0.928050000000     0.548025000000     0.861633333333    -0.521898   
O16      O      0.996466666667     0.696975000000     0.755166666667    -2.04827    
O17      O      0.846816666667     0.627925000000     0.751400000000    -1.69444    
O18      O      0.944050000000     0.619575000000     0.671733333333    -1.5962     
O19      O      0.960383333333     0.550850000000     0.668066666667    -1.90661    
O20      O      0.845133333333     0.555100000000     0.873866666667    -0.431686   
Al1      Al     0.993683333333     0.927550000000     0.051360000000     7.57605    
Al2      Al     0.880800000000     0.758225000000     0.134073333333     6.93565    
Al3      Al     0.963783333333     0.819425000000     0.040066666667     7.4016     
Al4      Al     0.910300000000     0.989600000000     0.289216666667     7.10416    
P1       P      0.978716666667     0.762275000000     0.323953333333     1.79348    
P2       P      0.893516666667     0.775225000000     0.206033333333     1.13871    
P3       P      0.868350000000     0.837675000000     0.078543333333     1.67583    
P4       P      0.921816666667     0.909450000000     0.011946666667     1.67128    
P5       P      0.979783333333     0.985225000000     0.099353333333     1.81364    
O1       O      0.889683333333     0.751550000000     0.179966666667    -1.89811    
O2       O      0.902266666667     0.996150000000     0.243700000000    -1.97518    
O3       O      0.841533333333     0.982250000000     0.131900000000    -2.00204    
O4       O      0.950116666667     0.764625000000     0.292066666667    -2.0481     
O5       O      0.942533333333     0.915600000000     0.043566666667    -2.13702    
O6       O      0.861283333333     0.761400000000     0.310533333333    -2.11891    
O7       O      0.928266666667     0.940125000000     0.309233333333    -2.11109    
O8       O      0.847500000000     0.831825000000     0.046400000000    -2.14431    
O9       O      0.930516666667     0.989225000000     0.112833333333    -2.15048    
O10      O      0.860633333333     0.808175000000     0.114166666667    -2.03199    
O11      O      0.919333333333     0.832150000000     0.071933333333    -2.04391    
O12      O      0.870966666667     0.914075000000     0.019533333333    -2.07253    
O13      O      0.975333333333     0.977300000000     0.020666666667    -2.09113    
O14      O      0.984950000000     0.769850000000     0.068700000000    -2.09999    
O15      O      0.928050000000     0.798025000000     0.194966666667    -0.521858   
O16      O      0.996466666667     0.946975000000     0.088500000000    -2.0481     
O17      O      0.846816666667     0.877925000000     0.084733333333    -1.69439    
O18      O      0.944050000000     0.869575000000     0.005066666667    -1.59557    
O19      O      0.960383333333     0.800850000000     0.001400000000    -1.90402    
O20      O      0.845133333333     0.805100000000     0.207200000000    -0.431577   
Al1      Al     0.993683333333     0.927550000000     0.384693333333     7.57641    
Al2      Al     0.880800000000     0.758225000000     0.467406666667     6.93573    
Al3      Al     0.963783333333     0.819425000000     0.373400000000     7.40225    
Al4      Al     0.910300000000     0.989600000000     0.622550000000     7.10423    
P1       P      0.978716666667     0.762275000000     0.657286666667     1.79351    
P2       P      0.893516666667     0.775225000000     0.539366666667     1.13873    
P3       P      0.868350000000     0.837675000000     0.411876666667     1.67593    
P4       P      0.921816666667     0.909450000000     0.345280000000     1.66959    
P5       P      0.979783333333     0.985225000000     0.432686666667     1.8137     
O1       O      0.889683333333     0.751550000000     0.513300000000    -1.89811    
O2       O      0.902266666667     0.996150000000     0.577033333333    -1.97518    
O3       O      0.841533333333     0.982250000000     0.465233333333    -2.00207    
O4       O      0.950116666667     0.764625000000     0.625400000000    -2.04811    
O5       O      0.942533333333     0.915600000000     0.376900000000    -2.13714    
O6       O      0.861283333333     0.761400000000     0.643866666667    -2.11892    
O7       O      0.928266666667     0.940125000000     0.642566666667    -2.11109    
O8       O      0.847500000000     0.831825000000     0.379733333333    -2.14474    
O9       O      0.930516666667     0.989225000000     0.446166666667    -2.15055    
O10      O      0.860633333333     0.808175000000     0.447500000000    -2.03202    
O11      O      0.919333333333     0.832150000000     0.405266666667    -2.04406    
O12      O      0.870966666667     0.914075000000     0.352866666667    -2.07318    
O13      O      0.975333333333     0.977300000000     0.354000000000    -2.09367    
O14      O      0.984950000000     0.769850000000     0.402033333333    -2.10033    
O15      O      0.928050000000     0.798025000000     0.528300000000    -0.521839   
O16      O      0.996466666667     0.946975000000     0.421833333333    -2.04823    
O17      O      0.846816666667     0.877925000000     0.418066666667    -1.69445    
O18      O      0.944050000000     0.869575000000     0.338400000000    -1.59626    
O19      O      0.960383333333     0.800850000000     0.334733333333    -1.90663    
O20      O      0.845133333333     0.805100000000     0.540533333333    -0.431555   
Al1      Al     0.993683333333     0.927550000000     0.718026666667     7.57649    
Al2      Al     0.880800000000     0.758225000000     0.800740000000     6.93567    
Al3      Al     0.963783333333     0.819425000000     0.706733333333     7.40233    
Al4      Al     0.910300000000     0.989600000000     0.955883333333     7.10077    
P1       P      0.978716666667     0.762275000000     0.990620000000     1.78902    
P2       P      0.893516666667     0.775225000000     0.872700000000     1.13855    
P3       P      0.868350000000     0.837675000000     0.745210000000     1.67594    
P4       P      0.921816666667     0.909450000000     0.678613333333     1.66961    
P5       P      0.979783333333     0.985225000000     0.766020000000     1.81371    
O1       O      0.889683333333     0.751550000000     0.846633333333    -1.89812    
O2       O      0.902266666667     0.996150000000     0.910366666667    -1.97457    
O3       O      0.841533333333     0.982250000000     0.798566666667    -2.00212    
O4       O      0.950116666667     0.764625000000     0.958733333333    -2.04745    
O5       O      0.942533333333     0.915600000000     0.710233333333    -2.13716    
O6       O      0.861283333333     0.761400000000     0.977200000000    -2.11875    
O7       O      0.928266666667     0.940125000000     0.975900000000    -2.11251    
O8       O      0.847500000000     0.831825000000     0.713066666667    -2.14475    
O9       O      0.930516666667     0.989225000000     0.779500000000    -2.15057    
O10      O      0.860633333333     0.808175000000     0.780833333333    -2.032      
O11      O      0.919333333333     0.832150000000     0.738600000000    -2.04407    
O12      O      0.870966666667     0.914075000000     0.686200000000    -2.07319    
O13      O      0.975333333333     0.977300000000     0.687333333333    -2.09369    
O14      O      0.984950000000     0.769850000000     0.735366666667    -2.10033    
O15      O      0.928050000000     0.798025000000     0.861633333333    -0.521881   
O16      O      0.996466666667     0.946975000000     0.755166666667    -2.04825    
O17      O      0.846816666667     0.877925000000     0.751400000000    -1.69447    
O18      O      0.944050000000     0.869575000000     0.671733333333    -1.59625    
O19      O      0.960383333333     0.800850000000     0.668066666667    -1.90663    
O20      O      0.845133333333     0.805100000000     0.873866666667    -0.431664   


