
#======================================================================
# CRYSTAL DATA
#----------------------------------------------------------------------
data_VESTA_phase_1

_chemical_name_common                  'Zn2'
_cell_length_a                         17.868828
_cell_length_b                         13.071799
_cell_length_c                         32.268326
_cell_angle_alpha                      111.455040
_cell_angle_beta                       94.031647
_cell_angle_gamma                      68.544960
_cell_volume                           6511.221165
_space_group_name_H-M_alt              'P 1'
_space_group_IT_number                 1

loop_
_space_group_symop_operation_xyz
   'x, y, z'

loop_
   _atom_site_label
   _atom_site_occupancy
   _atom_site_fract_x
   _atom_site_fract_y
   _atom_site_fract_z
   _atom_site_adp_type
   _atom_site_U_iso_or_equiv
   _atom_site_type_symbol
   Zn1        1.0     0.083333     0.066667     0.009229    Uiso  ? Zn
   Zn2        1.0     0.083333     0.266667     0.009229    Uiso  ? Zn
   Zn3        1.0     0.083333     0.466667     0.009229    Uiso  ? Zn
   Zn4        1.0     0.083333     0.666667     0.009229    Uiso  ? Zn
   Zn5        1.0     0.083333     0.866667     0.009229    Uiso  ? Zn
   Zn6        1.0     0.283333     0.066667     0.009229    Uiso  ? Zn
   Zn7        1.0     0.283333     0.266667     0.009229    Uiso  ? Zn
   Zn8        1.0     0.283333     0.466667     0.009229    Uiso  ? Zn
   Zn9        1.0     0.283333     0.666667     0.009229    Uiso  ? Zn
   Zn10       1.0     0.283333     0.866667     0.009229    Uiso  ? Zn
   Zn11       1.0     0.483333     0.066667     0.009229    Uiso  ? Zn
   Zn12       1.0     0.483333     0.266667     0.009229    Uiso  ? Zn
   Zn13       1.0     0.483333     0.466667     0.009229    Uiso  ? Zn
   Zn14       1.0     0.483333     0.666667     0.009229    Uiso  ? Zn
   Zn15       1.0     0.483333     0.866667     0.009229    Uiso  ? Zn
   Zn16       1.0     0.683333     0.066667     0.009229    Uiso  ? Zn
   Zn17       1.0     0.683333     0.266667     0.009229    Uiso  ? Zn
   Zn18       1.0     0.683333     0.466667     0.009229    Uiso  ? Zn
   Zn19       1.0     0.683333     0.666667     0.009229    Uiso  ? Zn
   Zn20       1.0     0.683333     0.866667     0.009229    Uiso  ? Zn
   Zn21       1.0     0.883333     0.066667     0.009229    Uiso  ? Zn
   Zn22       1.0     0.883333     0.266667     0.009229    Uiso  ? Zn
   Zn23       1.0     0.883333     0.466667     0.009229    Uiso  ? Zn
   Zn24       1.0     0.883333     0.666667     0.009229    Uiso  ? Zn
   Zn25       1.0     0.883333     0.866667     0.009229    Uiso  ? Zn
   Zn26       1.0     0.083333     0.066667     0.119981    Uiso  ? Zn
   Zn27       1.0     0.083333     0.266667     0.119981    Uiso  ? Zn
   Zn28       1.0     0.083333     0.466667     0.119981    Uiso  ? Zn
   Zn29       1.0     0.083333     0.666667     0.119981    Uiso  ? Zn
   Zn30       1.0     0.083333     0.866667     0.119981    Uiso  ? Zn
   Zn31       1.0     0.283333     0.066667     0.119981    Uiso  ? Zn
   Zn32       1.0     0.283333     0.266667     0.119981    Uiso  ? Zn
   Zn33       1.0     0.283333     0.466667     0.119981    Uiso  ? Zn
   Zn34       1.0     0.283333     0.666667     0.119981    Uiso  ? Zn
   Zn35       1.0     0.283333     0.866667     0.119981    Uiso  ? Zn
   Zn36       1.0     0.483333     0.066667     0.119981    Uiso  ? Zn
   Zn37       1.0     0.483333     0.266667     0.119981    Uiso  ? Zn
   Zn38       1.0     0.483333     0.466667     0.119981    Uiso  ? Zn
   Zn39       1.0     0.483333     0.666667     0.119981    Uiso  ? Zn
   Zn40       1.0     0.483333     0.866667     0.119981    Uiso  ? Zn
   Zn41       1.0     0.683333     0.066667     0.119981    Uiso  ? Zn
   Zn42       1.0     0.683333     0.266667     0.119981    Uiso  ? Zn
   Zn43       1.0     0.683333     0.466667     0.119981    Uiso  ? Zn
   Zn44       1.0     0.683333     0.666667     0.119981    Uiso  ? Zn
   Zn45       1.0     0.683333     0.866667     0.119981    Uiso  ? Zn
   Zn46       1.0     0.883333     0.066667     0.119981    Uiso  ? Zn
   Zn47       1.0     0.883333     0.266667     0.119981    Uiso  ? Zn
   Zn48       1.0     0.883333     0.466667     0.119981    Uiso  ? Zn
   Zn49       1.0     0.883333     0.666667     0.119981    Uiso  ? Zn
   Zn50       1.0     0.883333     0.866667     0.119981    Uiso  ? Zn
   Zn51       1.0     0.083333     0.066667     0.230732    Uiso  ? Zn
   Zn52       1.0     0.083333     0.266667     0.230732    Uiso  ? Zn
   Zn53       1.0     0.083333     0.466667     0.230732    Uiso  ? Zn
   Zn54       1.0     0.083333     0.666667     0.230732    Uiso  ? Zn
   Zn55       1.0     0.083333     0.866667     0.230732    Uiso  ? Zn
   Zn56       1.0     0.283333     0.066667     0.230732    Uiso  ? Zn
   Zn57       1.0     0.283333     0.266667     0.230732    Uiso  ? Zn
   Zn58       1.0     0.283333     0.466667     0.230732    Uiso  ? Zn
   Zn59       1.0     0.283333     0.666667     0.230732    Uiso  ? Zn
   Zn60       1.0     0.283333     0.866667     0.230732    Uiso  ? Zn
   Zn61       1.0     0.483333     0.066667     0.230732    Uiso  ? Zn
   Zn62       1.0     0.483333     0.266667     0.230732    Uiso  ? Zn
   Zn63       1.0     0.483333     0.466667     0.230732    Uiso  ? Zn
   Zn64       1.0     0.483333     0.666667     0.230732    Uiso  ? Zn
   Zn65       1.0     0.483333     0.866667     0.230732    Uiso  ? Zn
   Zn66       1.0     0.683333     0.066667     0.230732    Uiso  ? Zn
   Zn67       1.0     0.683333     0.266667     0.230732    Uiso  ? Zn
   Zn68       1.0     0.683333     0.466667     0.230732    Uiso  ? Zn
   Zn69       1.0     0.683333     0.666667     0.230732    Uiso  ? Zn
   Zn70       1.0     0.683333     0.866667     0.230732    Uiso  ? Zn
   Zn71       1.0     0.883333     0.066667     0.230732    Uiso  ? Zn
   Zn72       1.0     0.883333     0.266667     0.230732    Uiso  ? Zn
   Zn73       1.0     0.883333     0.466667     0.230732    Uiso  ? Zn
   Zn74       1.0     0.883333     0.666667     0.230732    Uiso  ? Zn
   Zn75       1.0     0.883333     0.866667     0.230732    Uiso  ? Zn
   Zn76       1.0     0.116667     0.133333     0.101522    Uiso  ? Zn
   Zn77       1.0     0.116667     0.333333     0.101522    Uiso  ? Zn
   Zn78       1.0     0.116667     0.533333     0.101522    Uiso  ? Zn
   Zn79       1.0     0.116667     0.733333     0.101522    Uiso  ? Zn
   Zn80       1.0     0.116667     0.933333     0.101522    Uiso  ? Zn
   Zn81       1.0     0.316667     0.133333     0.101522    Uiso  ? Zn
   Zn82       1.0     0.316667     0.333333     0.101522    Uiso  ? Zn
   Zn83       1.0     0.316667     0.533333     0.101522    Uiso  ? Zn
   Zn84       1.0     0.316667     0.733333     0.101522    Uiso  ? Zn
   Zn85       1.0     0.316667     0.933333     0.101522    Uiso  ? Zn
   Zn86       1.0     0.516667     0.133333     0.101522    Uiso  ? Zn
   Zn87       1.0     0.516667     0.333333     0.101522    Uiso  ? Zn
   Zn88       1.0     0.516667     0.533333     0.101522    Uiso  ? Zn
   Zn89       1.0     0.516667     0.733333     0.101522    Uiso  ? Zn
   Zn90       1.0     0.516667     0.933333     0.101522    Uiso  ? Zn
   Zn91       1.0     0.716667     0.133333     0.101522    Uiso  ? Zn
   Zn92       1.0     0.716667     0.333333     0.101522    Uiso  ? Zn
   Zn93       1.0     0.716667     0.533333     0.101522    Uiso  ? Zn
   Zn94       1.0     0.716667     0.733333     0.101522    Uiso  ? Zn
   Zn95       1.0     0.716667     0.933333     0.101522    Uiso  ? Zn
   Zn96       1.0     0.916667     0.133333     0.101522    Uiso  ? Zn
   Zn97       1.0     0.916667     0.333333     0.101522    Uiso  ? Zn
   Zn98       1.0     0.916667     0.533333     0.101522    Uiso  ? Zn
   Zn99       1.0     0.916667     0.733333     0.101522    Uiso  ? Zn
   Zn100      1.0     0.916667     0.933333     0.101522    Uiso  ? Zn
   Zn101      1.0     0.116667     0.133333     0.212274    Uiso  ? Zn
   Zn102      1.0     0.116667     0.333333     0.212274    Uiso  ? Zn
   Zn103      1.0     0.116667     0.533333     0.212274    Uiso  ? Zn
   Zn104      1.0     0.116667     0.733333     0.212274    Uiso  ? Zn
   Zn105      1.0     0.116667     0.933333     0.212274    Uiso  ? Zn
   Zn106      1.0     0.316667     0.133333     0.212274    Uiso  ? Zn
   Zn107      1.0     0.316667     0.333333     0.212274    Uiso  ? Zn
   Zn108      1.0     0.316667     0.533333     0.212274    Uiso  ? Zn
   Zn109      1.0     0.316667     0.733333     0.212274    Uiso  ? Zn
   Zn110      1.0     0.316667     0.933333     0.212274    Uiso  ? Zn
   Zn111      1.0     0.516667     0.133333     0.212274    Uiso  ? Zn
   Zn112      1.0     0.516667     0.333333     0.212274    Uiso  ? Zn
   Zn113      1.0     0.516667     0.533333     0.212274    Uiso  ? Zn
   Zn114      1.0     0.516667     0.733333     0.212274    Uiso  ? Zn
   Zn115      1.0     0.516667     0.933333     0.212274    Uiso  ? Zn
   Zn116      1.0     0.716667     0.133333     0.212274    Uiso  ? Zn
   Zn117      1.0     0.716667     0.333333     0.212274    Uiso  ? Zn
   Zn118      1.0     0.716667     0.533333     0.212274    Uiso  ? Zn
   Zn119      1.0     0.716667     0.733333     0.212274    Uiso  ? Zn
   Zn120      1.0     0.716667     0.933333     0.212274    Uiso  ? Zn
   Zn121      1.0     0.916667     0.133333     0.212274    Uiso  ? Zn
   Zn122      1.0     0.916667     0.333333     0.212274    Uiso  ? Zn
   Zn123      1.0     0.916667     0.533333     0.212274    Uiso  ? Zn
   Zn124      1.0     0.916667     0.733333     0.212274    Uiso  ? Zn
   Zn125      1.0     0.916667     0.933333     0.212274    Uiso  ? Zn
   Zn126      1.0     0.116667     0.133333     0.323025    Uiso  ? Zn
   Zn127      1.0     0.116667     0.333333     0.323025    Uiso  ? Zn
   Zn128      1.0     0.116667     0.533333     0.323025    Uiso  ? Zn
   Zn129      1.0     0.116667     0.733333     0.323025    Uiso  ? Zn
   Zn130      1.0     0.116667     0.933333     0.323025    Uiso  ? Zn
   Zn131      1.0     0.316667     0.133333     0.323025    Uiso  ? Zn
   Zn132      1.0     0.316667     0.333333     0.323025    Uiso  ? Zn
   Zn133      1.0     0.316667     0.533333     0.323025    Uiso  ? Zn
   Zn134      1.0     0.316667     0.733333     0.323025    Uiso  ? Zn
   Zn135      1.0     0.316667     0.933333     0.323025    Uiso  ? Zn
   Zn136      1.0     0.516667     0.133333     0.323025    Uiso  ? Zn
   Zn137      1.0     0.516667     0.333333     0.323025    Uiso  ? Zn
   Zn138      1.0     0.516667     0.533333     0.323025    Uiso  ? Zn
   Zn139      1.0     0.516667     0.733333     0.323025    Uiso  ? Zn
   Zn140      1.0     0.516667     0.933333     0.323025    Uiso  ? Zn
   Zn141      1.0     0.716667     0.133333     0.323025    Uiso  ? Zn
   Zn142      1.0     0.716667     0.333333     0.323025    Uiso  ? Zn
   Zn143      1.0     0.716667     0.533333     0.323025    Uiso  ? Zn
   Zn144      1.0     0.716667     0.733333     0.323025    Uiso  ? Zn
   Zn145      1.0     0.716667     0.933333     0.323025    Uiso  ? Zn
   Zn146      1.0     0.916667     0.133333     0.323025    Uiso  ? Zn
   Zn147      1.0     0.916667     0.333333     0.323025    Uiso  ? Zn
   Zn148      1.0     0.916667     0.533333     0.323025    Uiso  ? Zn
   Zn149      1.0     0.916667     0.733333     0.323025    Uiso  ? Zn
   Zn150      1.0     0.916667     0.933333     0.323025    Uiso  ? Zn
   Zn151      1.0     0.183333     0.066667     0.064605    Uiso  ? Zn
   Zn152      1.0     0.183333     0.266667     0.064605    Uiso  ? Zn
   Zn153      1.0     0.183333     0.466667     0.064605    Uiso  ? Zn
   Zn154      1.0     0.183333     0.666667     0.064605    Uiso  ? Zn
   Zn155      1.0     0.183333     0.866667     0.064605    Uiso  ? Zn
   Zn156      1.0     0.383333     0.066667     0.064605    Uiso  ? Zn
   Zn157      1.0     0.383333     0.266667     0.064605    Uiso  ? Zn
   Zn158      1.0     0.383333     0.466667     0.064605    Uiso  ? Zn
   Zn159      1.0     0.383333     0.666667     0.064605    Uiso  ? Zn
   Zn160      1.0     0.383333     0.866667     0.064605    Uiso  ? Zn
   Zn161      1.0     0.583333     0.066667     0.064605    Uiso  ? Zn
   Zn162      1.0     0.583333     0.266667     0.064605    Uiso  ? Zn
   Zn163      1.0     0.583333     0.466667     0.064605    Uiso  ? Zn
   Zn164      1.0     0.583333     0.666667     0.064605    Uiso  ? Zn
   Zn165      1.0     0.583333     0.866667     0.064605    Uiso  ? Zn
   Zn166      1.0     0.783333     0.066667     0.064605    Uiso  ? Zn
   Zn167      1.0     0.783333     0.266667     0.064605    Uiso  ? Zn
   Zn168      1.0     0.783333     0.466667     0.064605    Uiso  ? Zn
   Zn169      1.0     0.783333     0.666667     0.064605    Uiso  ? Zn
   Zn170      1.0     0.783333     0.866667     0.064605    Uiso  ? Zn
   Zn171      1.0     0.983333     0.066667     0.064605    Uiso  ? Zn
   Zn172      1.0     0.983333     0.266667     0.064605    Uiso  ? Zn
   Zn173      1.0     0.983333     0.466667     0.064605    Uiso  ? Zn
   Zn174      1.0     0.983333     0.666667     0.064605    Uiso  ? Zn
   Zn175      1.0     0.983333     0.866667     0.064605    Uiso  ? Zn
   Zn176      1.0     0.183333     0.066667     0.175357    Uiso  ? Zn
   Zn177      1.0     0.183333     0.266667     0.175357    Uiso  ? Zn
   Zn178      1.0     0.183333     0.466667     0.175357    Uiso  ? Zn
   Zn179      1.0     0.183333     0.666667     0.175357    Uiso  ? Zn
   Zn180      1.0     0.183333     0.866667     0.175357    Uiso  ? Zn
   Zn181      1.0     0.383333     0.066667     0.175357    Uiso  ? Zn
   Zn182      1.0     0.383333     0.266667     0.175357    Uiso  ? Zn
   Zn183      1.0     0.383333     0.466667     0.175357    Uiso  ? Zn
   Zn184      1.0     0.383333     0.666667     0.175357    Uiso  ? Zn
   Zn185      1.0     0.383333     0.866667     0.175357    Uiso  ? Zn
   Zn186      1.0     0.583333     0.066667     0.175357    Uiso  ? Zn
   Zn187      1.0     0.583333     0.266667     0.175357    Uiso  ? Zn
   Zn188      1.0     0.583333     0.466667     0.175357    Uiso  ? Zn
   Zn189      1.0     0.583333     0.666667     0.175357    Uiso  ? Zn
   Zn190      1.0     0.583333     0.866667     0.175357    Uiso  ? Zn
   Zn191      1.0     0.783333     0.066667     0.175357    Uiso  ? Zn
   Zn192      1.0     0.783333     0.266667     0.175357    Uiso  ? Zn
   Zn193      1.0     0.783333     0.466667     0.175357    Uiso  ? Zn
   Zn194      1.0     0.783333     0.666667     0.175357    Uiso  ? Zn
   Zn195      1.0     0.783333     0.866667     0.175357    Uiso  ? Zn
   Zn196      1.0     0.983333     0.066667     0.175357    Uiso  ? Zn
   Zn197      1.0     0.983333     0.266667     0.175357    Uiso  ? Zn
   Zn198      1.0     0.983333     0.466667     0.175357    Uiso  ? Zn
   Zn199      1.0     0.983333     0.666667     0.175357    Uiso  ? Zn
   Zn200      1.0     0.983333     0.866667     0.175357    Uiso  ? Zn
   Zn201      1.0     0.183333     0.066667     0.286108    Uiso  ? Zn
   Zn202      1.0     0.183333     0.266667     0.286108    Uiso  ? Zn
   Zn203      1.0     0.183333     0.466667     0.286108    Uiso  ? Zn
   Zn204      1.0     0.183333     0.666667     0.286108    Uiso  ? Zn
   Zn205      1.0     0.183333     0.866667     0.286108    Uiso  ? Zn
   Zn206      1.0     0.383333     0.066667     0.286108    Uiso  ? Zn
   Zn207      1.0     0.383333     0.266667     0.286108    Uiso  ? Zn
   Zn208      1.0     0.383333     0.466667     0.286108    Uiso  ? Zn
   Zn209      1.0     0.383333     0.666667     0.286108    Uiso  ? Zn
   Zn210      1.0     0.383333     0.866667     0.286108    Uiso  ? Zn
   Zn211      1.0     0.583333     0.066667     0.286108    Uiso  ? Zn
   Zn212      1.0     0.583333     0.266667     0.286108    Uiso  ? Zn
   Zn213      1.0     0.583333     0.466667     0.286108    Uiso  ? Zn
   Zn214      1.0     0.583333     0.666667     0.286108    Uiso  ? Zn
   Zn215      1.0     0.583333     0.866667     0.286108    Uiso  ? Zn
   Zn216      1.0     0.783333     0.066667     0.286108    Uiso  ? Zn
   Zn217      1.0     0.783333     0.266667     0.286108    Uiso  ? Zn
   Zn218      1.0     0.783333     0.466667     0.286108    Uiso  ? Zn
   Zn219      1.0     0.783333     0.666667     0.286108    Uiso  ? Zn
   Zn220      1.0     0.783333     0.866667     0.286108    Uiso  ? Zn
   Zn221      1.0     0.983333     0.066667     0.286108    Uiso  ? Zn
   Zn222      1.0     0.983333     0.266667     0.286108    Uiso  ? Zn
   Zn223      1.0     0.983333     0.466667     0.286108    Uiso  ? Zn
   Zn224      1.0     0.983333     0.666667     0.286108    Uiso  ? Zn
   Zn225      1.0     0.983333     0.866667     0.286108    Uiso  ? Zn
   Zn226      1.0     0.016667     0.133333     0.046146    Uiso  ? Zn
   Zn227      1.0     0.016667     0.333333     0.046146    Uiso  ? Zn
   Zn228      1.0     0.016667     0.533333     0.046146    Uiso  ? Zn
   Zn229      1.0     0.016667     0.733333     0.046146    Uiso  ? Zn
   Zn230      1.0     0.016667     0.933333     0.046146    Uiso  ? Zn
   Zn231      1.0     0.216667     0.133333     0.046146    Uiso  ? Zn
   Zn232      1.0     0.216667     0.333333     0.046146    Uiso  ? Zn
   Zn233      1.0     0.216667     0.533333     0.046146    Uiso  ? Zn
   Zn234      1.0     0.216667     0.733333     0.046146    Uiso  ? Zn
   Zn235      1.0     0.216667     0.933333     0.046146    Uiso  ? Zn
   Zn236      1.0     0.416667     0.133333     0.046146    Uiso  ? Zn
   Zn237      1.0     0.416667     0.333333     0.046146    Uiso  ? Zn
   Zn238      1.0     0.416667     0.533333     0.046146    Uiso  ? Zn
   Zn239      1.0     0.416667     0.733333     0.046146    Uiso  ? Zn
   Zn240      1.0     0.416667     0.933333     0.046146    Uiso  ? Zn
   Zn241      1.0     0.616667     0.133333     0.046146    Uiso  ? Zn
   Zn242      1.0     0.616667     0.333333     0.046146    Uiso  ? Zn
   Zn243      1.0     0.616667     0.533333     0.046146    Uiso  ? Zn
   Zn244      1.0     0.616667     0.733333     0.046146    Uiso  ? Zn
   Zn245      1.0     0.616667     0.933333     0.046146    Uiso  ? Zn
   Zn246      1.0     0.816667     0.133333     0.046146    Uiso  ? Zn
   Zn247      1.0     0.816667     0.333333     0.046146    Uiso  ? Zn
   Zn248      1.0     0.816667     0.533333     0.046146    Uiso  ? Zn
   Zn249      1.0     0.816667     0.733333     0.046146    Uiso  ? Zn
   Zn250      1.0     0.816667     0.933333     0.046146    Uiso  ? Zn
   Zn251      1.0     0.016667     0.133333     0.156898    Uiso  ? Zn
   Zn252      1.0     0.016667     0.333333     0.156898    Uiso  ? Zn
   Zn253      1.0     0.016667     0.533333     0.156898    Uiso  ? Zn
   Zn254      1.0     0.016667     0.733333     0.156898    Uiso  ? Zn
   Zn255      1.0     0.016667     0.933333     0.156898    Uiso  ? Zn
   Zn256      1.0     0.216667     0.133333     0.156898    Uiso  ? Zn
   Zn257      1.0     0.216667     0.333333     0.156898    Uiso  ? Zn
   Zn258      1.0     0.216667     0.533333     0.156898    Uiso  ? Zn
   Zn259      1.0     0.216667     0.733333     0.156898    Uiso  ? Zn
   Zn260      1.0     0.216667     0.933333     0.156898    Uiso  ? Zn
   Zn261      1.0     0.416667     0.133333     0.156898    Uiso  ? Zn
   Zn262      1.0     0.416667     0.333333     0.156898    Uiso  ? Zn
   Zn263      1.0     0.416667     0.533333     0.156898    Uiso  ? Zn
   Zn264      1.0     0.416667     0.733333     0.156898    Uiso  ? Zn
   Zn265      1.0     0.416667     0.933333     0.156898    Uiso  ? Zn
   Zn266      1.0     0.616667     0.133333     0.156898    Uiso  ? Zn
   Zn267      1.0     0.616667     0.333333     0.156898    Uiso  ? Zn
   Zn268      1.0     0.616667     0.533333     0.156898    Uiso  ? Zn
   Zn269      1.0     0.616667     0.733333     0.156898    Uiso  ? Zn
   Zn270      1.0     0.616667     0.933333     0.156898    Uiso  ? Zn
   Zn271      1.0     0.816667     0.133333     0.156898    Uiso  ? Zn
   Zn272      1.0     0.816667     0.333333     0.156898    Uiso  ? Zn
   Zn273      1.0     0.816667     0.533333     0.156898    Uiso  ? Zn
   Zn274      1.0     0.816667     0.733333     0.156898    Uiso  ? Zn
   Zn275      1.0     0.816667     0.933333     0.156898    Uiso  ? Zn
   Zn276      1.0     0.016667     0.133333     0.267649    Uiso  ? Zn
   Zn277      1.0     0.016667     0.333333     0.267649    Uiso  ? Zn
   Zn278      1.0     0.016667     0.533333     0.267649    Uiso  ? Zn
   Zn279      1.0     0.016667     0.733333     0.267649    Uiso  ? Zn
   Zn280      1.0     0.016667     0.933333     0.267649    Uiso  ? Zn
   Zn281      1.0     0.216667     0.133333     0.267649    Uiso  ? Zn
   Zn282      1.0     0.216667     0.333333     0.267649    Uiso  ? Zn
   Zn283      1.0     0.216667     0.533333     0.267649    Uiso  ? Zn
   Zn284      1.0     0.216667     0.733333     0.267649    Uiso  ? Zn
   Zn285      1.0     0.216667     0.933333     0.267649    Uiso  ? Zn
   Zn286      1.0     0.416667     0.133333     0.267649    Uiso  ? Zn
   Zn287      1.0     0.416667     0.333333     0.267649    Uiso  ? Zn
   Zn288      1.0     0.416667     0.533333     0.267649    Uiso  ? Zn
   Zn289      1.0     0.416667     0.733333     0.267649    Uiso  ? Zn
   Zn290      1.0     0.416667     0.933333     0.267649    Uiso  ? Zn
   Zn291      1.0     0.616667     0.133333     0.267649    Uiso  ? Zn
   Zn292      1.0     0.616667     0.333333     0.267649    Uiso  ? Zn
   Zn293      1.0     0.616667     0.533333     0.267649    Uiso  ? Zn
   Zn294      1.0     0.616667     0.733333     0.267649    Uiso  ? Zn
   Zn295      1.0     0.616667     0.933333     0.267649    Uiso  ? Zn
   Zn296      1.0     0.816667     0.133333     0.267649    Uiso  ? Zn
   Zn297      1.0     0.816667     0.333333     0.267649    Uiso  ? Zn
   Zn298      1.0     0.816667     0.533333     0.267649    Uiso  ? Zn
   Zn299      1.0     0.816667     0.733333     0.267649    Uiso  ? Zn
   Zn300      1.0     0.816667     0.933333     0.267649    Uiso  ? Zn
   Zn301      1.0     0.183333     0.066667     0.064605    Uiso  ? Zn
   Zn302      1.0     0.183333     0.266667     0.064605    Uiso  ? Zn
   Zn303      1.0     0.183333     0.466667     0.064605    Uiso  ? Zn
   Zn304      1.0     0.183333     0.666667     0.064605    Uiso  ? Zn
   Zn305      1.0     0.183333     0.866667     0.064605    Uiso  ? Zn
   Zn306      1.0     0.383333     0.066667     0.064605    Uiso  ? Zn
   Zn307      1.0     0.383333     0.266667     0.064605    Uiso  ? Zn
   Zn308      1.0     0.383333     0.466667     0.064605    Uiso  ? Zn
   Zn309      1.0     0.383333     0.666667     0.064605    Uiso  ? Zn
   Zn310      1.0     0.383333     0.866667     0.064605    Uiso  ? Zn
   Zn311      1.0     0.583333     0.066667     0.064605    Uiso  ? Zn
   Zn312      1.0     0.583333     0.266667     0.064605    Uiso  ? Zn
   Zn313      1.0     0.583333     0.466667     0.064605    Uiso  ? Zn
   Zn314      1.0     0.583333     0.666667     0.064605    Uiso  ? Zn
   Zn315      1.0     0.583333     0.866667     0.064605    Uiso  ? Zn
   Zn316      1.0     0.783333     0.066667     0.064605    Uiso  ? Zn
   Zn317      1.0     0.783333     0.266667     0.064605    Uiso  ? Zn
   Zn318      1.0     0.783333     0.466667     0.064605    Uiso  ? Zn
   Zn319      1.0     0.783333     0.666667     0.064605    Uiso  ? Zn
   Zn320      1.0     0.783333     0.866667     0.064605    Uiso  ? Zn
   Zn321      1.0     0.983333     0.066667     0.064605    Uiso  ? Zn
   Zn322      1.0     0.983333     0.266667     0.064605    Uiso  ? Zn
   Zn323      1.0     0.983333     0.466667     0.064605    Uiso  ? Zn
   Zn324      1.0     0.983333     0.666667     0.064605    Uiso  ? Zn
   Zn325      1.0     0.983333     0.866667     0.064605    Uiso  ? Zn
   Zn326      1.0     0.183333     0.066667     0.175357    Uiso  ? Zn
   Zn327      1.0     0.183333     0.266667     0.175357    Uiso  ? Zn
   Zn328      1.0     0.183333     0.466667     0.175357    Uiso  ? Zn
   Zn329      1.0     0.183333     0.666667     0.175357    Uiso  ? Zn
   Zn330      1.0     0.183333     0.866667     0.175357    Uiso  ? Zn
   Zn331      1.0     0.383333     0.066667     0.175357    Uiso  ? Zn
   Zn332      1.0     0.383333     0.266667     0.175357    Uiso  ? Zn
   Zn333      1.0     0.383333     0.466667     0.175357    Uiso  ? Zn
   Zn334      1.0     0.383333     0.666667     0.175357    Uiso  ? Zn
   Zn335      1.0     0.383333     0.866667     0.175357    Uiso  ? Zn
   Zn336      1.0     0.583333     0.066667     0.175357    Uiso  ? Zn
   Zn337      1.0     0.583333     0.266667     0.175357    Uiso  ? Zn
   Zn338      1.0     0.583333     0.466667     0.175357    Uiso  ? Zn
   Zn339      1.0     0.583333     0.666667     0.175357    Uiso  ? Zn
   Zn340      1.0     0.583333     0.866667     0.175357    Uiso  ? Zn
   Zn341      1.0     0.783333     0.066667     0.175357    Uiso  ? Zn
   Zn342      1.0     0.783333     0.266667     0.175357    Uiso  ? Zn
   Zn343      1.0     0.783333     0.466667     0.175357    Uiso  ? Zn
   Zn344      1.0     0.783333     0.666667     0.175357    Uiso  ? Zn
   Zn345      1.0     0.783333     0.866667     0.175357    Uiso  ? Zn
   Zn346      1.0     0.983333     0.066667     0.175357    Uiso  ? Zn
   Zn347      1.0     0.983333     0.266667     0.175357    Uiso  ? Zn
   Zn348      1.0     0.983333     0.466667     0.175357    Uiso  ? Zn
   Zn349      1.0     0.983333     0.666667     0.175357    Uiso  ? Zn
   Zn350      1.0     0.983333     0.866667     0.175357    Uiso  ? Zn
   Zn351      1.0     0.183333     0.066667     0.286108    Uiso  ? Zn
   Zn352      1.0     0.183333     0.266667     0.286108    Uiso  ? Zn
   Zn353      1.0     0.183333     0.466667     0.286108    Uiso  ? Zn
   Zn354      1.0     0.183333     0.666667     0.286108    Uiso  ? Zn
   Zn355      1.0     0.183333     0.866667     0.286108    Uiso  ? Zn
   Zn356      1.0     0.383333     0.066667     0.286108    Uiso  ? Zn
   Zn357      1.0     0.383333     0.266667     0.286108    Uiso  ? Zn
   Zn358      1.0     0.383333     0.466667     0.286108    Uiso  ? Zn
   Zn359      1.0     0.383333     0.666667     0.286108    Uiso  ? Zn
   Zn360      1.0     0.383333     0.866667     0.286108    Uiso  ? Zn
   Zn361      1.0     0.583333     0.066667     0.286108    Uiso  ? Zn
   Zn362      1.0     0.583333     0.266667     0.286108    Uiso  ? Zn
   Zn363      1.0     0.583333     0.466667     0.286108    Uiso  ? Zn
   Zn364      1.0     0.583333     0.666667     0.286108    Uiso  ? Zn
   Zn365      1.0     0.583333     0.866667     0.286108    Uiso  ? Zn
   Zn366      1.0     0.783333     0.066667     0.286108    Uiso  ? Zn
   Zn367      1.0     0.783333     0.266667     0.286108    Uiso  ? Zn
   Zn368      1.0     0.783333     0.466667     0.286108    Uiso  ? Zn
   Zn369      1.0     0.783333     0.666667     0.286108    Uiso  ? Zn
   Zn370      1.0     0.783333     0.866667     0.286108    Uiso  ? Zn
   Zn371      1.0     0.983333     0.066667     0.286108    Uiso  ? Zn
   Zn372      1.0     0.983333     0.266667     0.286108    Uiso  ? Zn
   Zn373      1.0     0.983333     0.466667     0.286108    Uiso  ? Zn
   Zn374      1.0     0.983333     0.666667     0.286108    Uiso  ? Zn
   Zn375      1.0     0.983333     0.866667     0.286108    Uiso  ? Zn
   Zn376      1.0     0.016667     0.133333     0.046146    Uiso  ? Zn
   Zn377      1.0     0.016667     0.333333     0.046146    Uiso  ? Zn
   Zn378      1.0     0.016667     0.533333     0.046146    Uiso  ? Zn
   Zn379      1.0     0.016667     0.733333     0.046146    Uiso  ? Zn
   Zn380      1.0     0.016667     0.933333     0.046146    Uiso  ? Zn
   Zn381      1.0     0.216667     0.133333     0.046146    Uiso  ? Zn
   Zn382      1.0     0.216667     0.333333     0.046146    Uiso  ? Zn
   Zn383      1.0     0.216667     0.533333     0.046146    Uiso  ? Zn
   Zn384      1.0     0.216667     0.733333     0.046146    Uiso  ? Zn
   Zn385      1.0     0.216667     0.933333     0.046146    Uiso  ? Zn
   Zn386      1.0     0.416667     0.133333     0.046146    Uiso  ? Zn
   Zn387      1.0     0.416667     0.333333     0.046146    Uiso  ? Zn
   Zn388      1.0     0.416667     0.533333     0.046146    Uiso  ? Zn
   Zn389      1.0     0.416667     0.733333     0.046146    Uiso  ? Zn
   Zn390      1.0     0.416667     0.933333     0.046146    Uiso  ? Zn
   Zn391      1.0     0.616667     0.133333     0.046146    Uiso  ? Zn
   Zn392      1.0     0.616667     0.333333     0.046146    Uiso  ? Zn
   Zn393      1.0     0.616667     0.533333     0.046146    Uiso  ? Zn
   Zn394      1.0     0.616667     0.733333     0.046146    Uiso  ? Zn
   Zn395      1.0     0.616667     0.933333     0.046146    Uiso  ? Zn
   Zn396      1.0     0.816667     0.133333     0.046146    Uiso  ? Zn
   Zn397      1.0     0.816667     0.333333     0.046146    Uiso  ? Zn
   Zn398      1.0     0.816667     0.533333     0.046146    Uiso  ? Zn
   Zn399      1.0     0.816667     0.733333     0.046146    Uiso  ? Zn
   Zn400      1.0     0.816667     0.933333     0.046146    Uiso  ? Zn
   Zn401      1.0     0.016667     0.133333     0.156898    Uiso  ? Zn
   Zn402      1.0     0.016667     0.333333     0.156898    Uiso  ? Zn
   Zn403      1.0     0.016667     0.533333     0.156898    Uiso  ? Zn
   Zn404      1.0     0.016667     0.733333     0.156898    Uiso  ? Zn
   Zn405      1.0     0.016667     0.933333     0.156898    Uiso  ? Zn
   Zn406      1.0     0.216667     0.133333     0.156898    Uiso  ? Zn
   Zn407      1.0     0.216667     0.333333     0.156898    Uiso  ? Zn
   Zn408      1.0     0.216667     0.533333     0.156898    Uiso  ? Zn
   Zn409      1.0     0.216667     0.733333     0.156898    Uiso  ? Zn
   Zn410      1.0     0.216667     0.933333     0.156898    Uiso  ? Zn
   Zn411      1.0     0.416667     0.133333     0.156898    Uiso  ? Zn
   Zn412      1.0     0.416667     0.333333     0.156898    Uiso  ? Zn
   Zn413      1.0     0.416667     0.533333     0.156898    Uiso  ? Zn
   Zn414      1.0     0.416667     0.733333     0.156898    Uiso  ? Zn
   Zn415      1.0     0.416667     0.933333     0.156898    Uiso  ? Zn
   Zn416      1.0     0.616667     0.133333     0.156898    Uiso  ? Zn
   Zn417      1.0     0.616667     0.333333     0.156898    Uiso  ? Zn
   Zn418      1.0     0.616667     0.533333     0.156898    Uiso  ? Zn
   Zn419      1.0     0.616667     0.733333     0.156898    Uiso  ? Zn
   Zn420      1.0     0.616667     0.933333     0.156898    Uiso  ? Zn
   Zn421      1.0     0.816667     0.133333     0.156898    Uiso  ? Zn
   Zn422      1.0     0.816667     0.333333     0.156898    Uiso  ? Zn
   Zn423      1.0     0.816667     0.533333     0.156898    Uiso  ? Zn
   Zn424      1.0     0.816667     0.733333     0.156898    Uiso  ? Zn
   Zn425      1.0     0.816667     0.933333     0.156898    Uiso  ? Zn
   Zn426      1.0     0.016667     0.133333     0.267649    Uiso  ? Zn
   Zn427      1.0     0.016667     0.333333     0.267649    Uiso  ? Zn
   Zn428      1.0     0.016667     0.533333     0.267649    Uiso  ? Zn
   Zn429      1.0     0.016667     0.733333     0.267649    Uiso  ? Zn
   Zn430      1.0     0.016667     0.933333     0.267649    Uiso  ? Zn
   Zn431      1.0     0.216667     0.133333     0.267649    Uiso  ? Zn
   Zn432      1.0     0.216667     0.333333     0.267649    Uiso  ? Zn
   Zn433      1.0     0.216667     0.533333     0.267649    Uiso  ? Zn
   Zn434      1.0     0.216667     0.733333     0.267649    Uiso  ? Zn
   Zn435      1.0     0.216667     0.933333     0.267649    Uiso  ? Zn
   Zn436      1.0     0.416667     0.133333     0.267649    Uiso  ? Zn
   Zn437      1.0     0.416667     0.333333     0.267649    Uiso  ? Zn
   Zn438      1.0     0.416667     0.533333     0.267649    Uiso  ? Zn
   Zn439      1.0     0.416667     0.733333     0.267649    Uiso  ? Zn
   Zn440      1.0     0.416667     0.933333     0.267649    Uiso  ? Zn
   Zn441      1.0     0.616667     0.133333     0.267649    Uiso  ? Zn
   Zn442      1.0     0.616667     0.333333     0.267649    Uiso  ? Zn
   Zn443      1.0     0.616667     0.533333     0.267649    Uiso  ? Zn
   Zn444      1.0     0.616667     0.733333     0.267649    Uiso  ? Zn
   Zn445      1.0     0.616667     0.933333     0.267649    Uiso  ? Zn
   Zn446      1.0     0.816667     0.133333     0.267649    Uiso  ? Zn
   Zn447      1.0     0.816667     0.333333     0.267649    Uiso  ? Zn
   Zn448      1.0     0.816667     0.533333     0.267649    Uiso  ? Zn
   Zn449      1.0     0.816667     0.733333     0.267649    Uiso  ? Zn
   Zn450      1.0     0.816667     0.933333     0.267649    Uiso  ? Zn
   Zn451      1.0     0.083333     0.066667     0.009229    Uiso  ? Zn
   Zn452      1.0     0.083333     0.266667     0.009229    Uiso  ? Zn
   Zn453      1.0     0.083333     0.466667     0.009229    Uiso  ? Zn
   Zn454      1.0     0.083333     0.666667     0.009229    Uiso  ? Zn
   Zn455      1.0     0.083333     0.866667     0.009229    Uiso  ? Zn
   Zn456      1.0     0.283333     0.066667     0.009229    Uiso  ? Zn
   Zn457      1.0     0.283333     0.266667     0.009229    Uiso  ? Zn
   Zn458      1.0     0.283333     0.466667     0.009229    Uiso  ? Zn
   Zn459      1.0     0.283333     0.666667     0.009229    Uiso  ? Zn
   Zn460      1.0     0.283333     0.866667     0.009229    Uiso  ? Zn
   Zn461      1.0     0.483333     0.066667     0.009229    Uiso  ? Zn
   Zn462      1.0     0.483333     0.266667     0.009229    Uiso  ? Zn
   Zn463      1.0     0.483333     0.466667     0.009229    Uiso  ? Zn
   Zn464      1.0     0.483333     0.666667     0.009229    Uiso  ? Zn
   Zn465      1.0     0.483333     0.866667     0.009229    Uiso  ? Zn
   Zn466      1.0     0.683333     0.066667     0.009229    Uiso  ? Zn
   Zn467      1.0     0.683333     0.266667     0.009229    Uiso  ? Zn
   Zn468      1.0     0.683333     0.466667     0.009229    Uiso  ? Zn
   Zn469      1.0     0.683333     0.666667     0.009229    Uiso  ? Zn
   Zn470      1.0     0.683333     0.866667     0.009229    Uiso  ? Zn
   Zn471      1.0     0.883333     0.066667     0.009229    Uiso  ? Zn
   Zn472      1.0     0.883333     0.266667     0.009229    Uiso  ? Zn
   Zn473      1.0     0.883333     0.466667     0.009229    Uiso  ? Zn
   Zn474      1.0     0.883333     0.666667     0.009229    Uiso  ? Zn
   Zn475      1.0     0.883333     0.866667     0.009229    Uiso  ? Zn
   Zn476      1.0     0.083333     0.066667     0.119981    Uiso  ? Zn
   Zn477      1.0     0.083333     0.266667     0.119981    Uiso  ? Zn
   Zn478      1.0     0.083333     0.466667     0.119981    Uiso  ? Zn
   Zn479      1.0     0.083333     0.666667     0.119981    Uiso  ? Zn
   Zn480      1.0     0.083333     0.866667     0.119981    Uiso  ? Zn
   Zn481      1.0     0.283333     0.066667     0.119981    Uiso  ? Zn
   Zn482      1.0     0.283333     0.266667     0.119981    Uiso  ? Zn
   Zn483      1.0     0.283333     0.466667     0.119981    Uiso  ? Zn
   Zn484      1.0     0.283333     0.666667     0.119981    Uiso  ? Zn
   Zn485      1.0     0.283333     0.866667     0.119981    Uiso  ? Zn
   Zn486      1.0     0.483333     0.066667     0.119981    Uiso  ? Zn
   Zn487      1.0     0.483333     0.266667     0.119981    Uiso  ? Zn
   Zn488      1.0     0.483333     0.466667     0.119981    Uiso  ? Zn
   Zn489      1.0     0.483333     0.666667     0.119981    Uiso  ? Zn
   Zn490      1.0     0.483333     0.866667     0.119981    Uiso  ? Zn
   Zn491      1.0     0.683333     0.066667     0.119981    Uiso  ? Zn
   Zn492      1.0     0.683333     0.266667     0.119981    Uiso  ? Zn
   Zn493      1.0     0.683333     0.466667     0.119981    Uiso  ? Zn
   Zn494      1.0     0.683333     0.666667     0.119981    Uiso  ? Zn
   Zn495      1.0     0.683333     0.866667     0.119981    Uiso  ? Zn
   Zn496      1.0     0.883333     0.066667     0.119981    Uiso  ? Zn
   Zn497      1.0     0.883333     0.266667     0.119981    Uiso  ? Zn
   Zn498      1.0     0.883333     0.466667     0.119981    Uiso  ? Zn
   Zn499      1.0     0.883333     0.666667     0.119981    Uiso  ? Zn
   Zn500      1.0     0.883333     0.866667     0.119981    Uiso  ? Zn
   Zn501      1.0     0.083333     0.066667     0.230732    Uiso  ? Zn
   Zn502      1.0     0.083333     0.266667     0.230732    Uiso  ? Zn
   Zn503      1.0     0.083333     0.466667     0.230732    Uiso  ? Zn
   Zn504      1.0     0.083333     0.666667     0.230732    Uiso  ? Zn
   Zn505      1.0     0.083333     0.866667     0.230732    Uiso  ? Zn
   Zn506      1.0     0.283333     0.066667     0.230732    Uiso  ? Zn
   Zn507      1.0     0.283333     0.266667     0.230732    Uiso  ? Zn
   Zn508      1.0     0.283333     0.466667     0.230732    Uiso  ? Zn
   Zn509      1.0     0.283333     0.666667     0.230732    Uiso  ? Zn
   Zn510      1.0     0.283333     0.866667     0.230732    Uiso  ? Zn
   Zn511      1.0     0.483333     0.066667     0.230732    Uiso  ? Zn
   Zn512      1.0     0.483333     0.266667     0.230732    Uiso  ? Zn
   Zn513      1.0     0.483333     0.466667     0.230732    Uiso  ? Zn
   Zn514      1.0     0.483333     0.666667     0.230732    Uiso  ? Zn
   Zn515      1.0     0.483333     0.866667     0.230732    Uiso  ? Zn
   Zn516      1.0     0.683333     0.066667     0.230732    Uiso  ? Zn
   Zn517      1.0     0.683333     0.266667     0.230732    Uiso  ? Zn
   Zn518      1.0     0.683333     0.466667     0.230732    Uiso  ? Zn
   Zn519      1.0     0.683333     0.666667     0.230732    Uiso  ? Zn
   Zn520      1.0     0.683333     0.866667     0.230732    Uiso  ? Zn
   Zn521      1.0     0.883333     0.066667     0.230732    Uiso  ? Zn
   Zn522      1.0     0.883333     0.266667     0.230732    Uiso  ? Zn
   Zn523      1.0     0.883333     0.466667     0.230732    Uiso  ? Zn
   Zn524      1.0     0.883333     0.666667     0.230732    Uiso  ? Zn
   Zn525      1.0     0.883333     0.866667     0.230732    Uiso  ? Zn
   Zn526      1.0     0.116667     0.133333     0.101522    Uiso  ? Zn
   Zn527      1.0     0.116667     0.333333     0.101522    Uiso  ? Zn
   Zn528      1.0     0.116667     0.533333     0.101522    Uiso  ? Zn
   Zn529      1.0     0.116667     0.733333     0.101522    Uiso  ? Zn
   Zn530      1.0     0.116667     0.933333     0.101522    Uiso  ? Zn
   Zn531      1.0     0.316667     0.133333     0.101522    Uiso  ? Zn
   Zn532      1.0     0.316667     0.333333     0.101522    Uiso  ? Zn
   Zn533      1.0     0.316667     0.533333     0.101522    Uiso  ? Zn
   Zn534      1.0     0.316667     0.733333     0.101522    Uiso  ? Zn
   Zn535      1.0     0.316667     0.933333     0.101522    Uiso  ? Zn
   Zn536      1.0     0.516667     0.133333     0.101522    Uiso  ? Zn
   Zn537      1.0     0.516667     0.333333     0.101522    Uiso  ? Zn
   Zn538      1.0     0.516667     0.533333     0.101522    Uiso  ? Zn
   Zn539      1.0     0.516667     0.733333     0.101522    Uiso  ? Zn
   Zn540      1.0     0.516667     0.933333     0.101522    Uiso  ? Zn
   Zn541      1.0     0.716667     0.133333     0.101522    Uiso  ? Zn
   Zn542      1.0     0.716667     0.333333     0.101522    Uiso  ? Zn
   Zn543      1.0     0.716667     0.533333     0.101522    Uiso  ? Zn
   Zn544      1.0     0.716667     0.733333     0.101522    Uiso  ? Zn
   Zn545      1.0     0.716667     0.933333     0.101522    Uiso  ? Zn
   Zn546      1.0     0.916667     0.133333     0.101522    Uiso  ? Zn
   Zn547      1.0     0.916667     0.333333     0.101522    Uiso  ? Zn
   Zn548      1.0     0.916667     0.533333     0.101522    Uiso  ? Zn
   Zn549      1.0     0.916667     0.733333     0.101522    Uiso  ? Zn
   Zn550      1.0     0.916667     0.933333     0.101522    Uiso  ? Zn
   Zn551      1.0     0.116667     0.133333     0.212274    Uiso  ? Zn
   Zn552      1.0     0.116667     0.333333     0.212274    Uiso  ? Zn
   Zn553      1.0     0.116667     0.533333     0.212274    Uiso  ? Zn
   Zn554      1.0     0.116667     0.733333     0.212274    Uiso  ? Zn
   Zn555      1.0     0.116667     0.933333     0.212274    Uiso  ? Zn
   Zn556      1.0     0.316667     0.133333     0.212274    Uiso  ? Zn
   Zn557      1.0     0.316667     0.333333     0.212274    Uiso  ? Zn
   Zn558      1.0     0.316667     0.533333     0.212274    Uiso  ? Zn
   Zn559      1.0     0.316667     0.733333     0.212274    Uiso  ? Zn
   Zn560      1.0     0.316667     0.933333     0.212274    Uiso  ? Zn
   Zn561      1.0     0.516667     0.133333     0.212274    Uiso  ? Zn
   Zn562      1.0     0.516667     0.333333     0.212274    Uiso  ? Zn
   Zn563      1.0     0.516667     0.533333     0.212274    Uiso  ? Zn
   Zn564      1.0     0.516667     0.733333     0.212274    Uiso  ? Zn
   Zn565      1.0     0.516667     0.933333     0.212274    Uiso  ? Zn
   Zn566      1.0     0.716667     0.133333     0.212274    Uiso  ? Zn
   Zn567      1.0     0.716667     0.333333     0.212274    Uiso  ? Zn
   Zn568      1.0     0.716667     0.533333     0.212274    Uiso  ? Zn
   Zn569      1.0     0.716667     0.733333     0.212274    Uiso  ? Zn
   Zn570      1.0     0.716667     0.933333     0.212274    Uiso  ? Zn
   Zn571      1.0     0.916667     0.133333     0.212274    Uiso  ? Zn
   Zn572      1.0     0.916667     0.333333     0.212274    Uiso  ? Zn
   Zn573      1.0     0.916667     0.533333     0.212274    Uiso  ? Zn
   Zn574      1.0     0.916667     0.733333     0.212274    Uiso  ? Zn
   Zn575      1.0     0.916667     0.933333     0.212274    Uiso  ? Zn
   Zn576      1.0     0.116667     0.133333     0.323025    Uiso  ? Zn
   Zn577      1.0     0.116667     0.333333     0.323025    Uiso  ? Zn
   Zn578      1.0     0.116667     0.533333     0.323025    Uiso  ? Zn
   Zn579      1.0     0.116667     0.733333     0.323025    Uiso  ? Zn
   Zn580      1.0     0.116667     0.933333     0.323025    Uiso  ? Zn
   Zn581      1.0     0.316667     0.133333     0.323025    Uiso  ? Zn
   Zn582      1.0     0.316667     0.333333     0.323025    Uiso  ? Zn
   Zn583      1.0     0.316667     0.533333     0.323025    Uiso  ? Zn
   Zn584      1.0     0.316667     0.733333     0.323025    Uiso  ? Zn
   Zn585      1.0     0.316667     0.933333     0.323025    Uiso  ? Zn
   Zn586      1.0     0.516667     0.133333     0.323025    Uiso  ? Zn
   Zn587      1.0     0.516667     0.333333     0.323025    Uiso  ? Zn
   Zn588      1.0     0.516667     0.533333     0.323025    Uiso  ? Zn
   Zn589      1.0     0.516667     0.733333     0.323025    Uiso  ? Zn
   Zn590      1.0     0.516667     0.933333     0.323025    Uiso  ? Zn
   Zn591      1.0     0.716667     0.133333     0.323025    Uiso  ? Zn
   Zn592      1.0     0.716667     0.333333     0.323025    Uiso  ? Zn
   Zn593      1.0     0.716667     0.533333     0.323025    Uiso  ? Zn
   Zn594      1.0     0.716667     0.733333     0.323025    Uiso  ? Zn
   Zn595      1.0     0.716667     0.933333     0.323025    Uiso  ? Zn
   Zn596      1.0     0.916667     0.133333     0.323025    Uiso  ? Zn
   Zn597      1.0     0.916667     0.333333     0.323025    Uiso  ? Zn
   Zn598      1.0     0.916667     0.533333     0.323025    Uiso  ? Zn
   Zn599      1.0     0.916667     0.733333     0.323025    Uiso  ? Zn
   Zn600      1.0     0.916667     0.933333     0.323025    Uiso  ? Zn
