data_TOFTIT_clean

_audit_creation_method RASPA-1.0
_audit_creation_date 2025-1-23
_audit_author_name ''

_cell_length_a    31.4955
_cell_length_b    31.4955
_cell_length_c    31.6234
_cell_angle_alpha 119.866
_cell_angle_beta  119.866
_cell_angle_gamma 90
_cell_volume      44542.1

_symmetry_cell_setting          triclinic
_symmetry_space_group_name_Hall 'P 1'
_symmetry_space_group_name_H-M  'P 1'
_symmetry_Int_Tables_number     1

_symmetry_equiv_pos_as_xyz 'x,y,z'

loop_
_atom_site_label
_atom_site_type_symbol
_atom_site_fract_x
_atom_site_fract_y
_atom_site_fract_z
_atom_site_charge
O        O      0.476170000000     0.205300000000     0.469240000000     0          
O        O      0.229980000000     0.538620000000     0.392900000000     0          
O        O      0.803910000000     0.467520000000     0.469410000000     0          
O        O      0.770020000000     0.461380000000     0.107100000000     0          
O        O      0.597170000000     0.483470000000     0.358210000000     0          
O        O      0.229350000000     0.506190000000     0.314720000000     0          
O        O      0.556970000000     0.789800000000     0.468790000000     0          
O        O      0.210200000000     0.619390000000     0.031210000000     0          
O        O      0.548030000000     0.719580000000     0.469040000000     0          
O        O      0.380610000000     0.147780000000     0.468790000000     0          
O        O      0.506190000000     0.400090000000     0.314720000000     0          
O        O      0.493810000000     0.599910000000     0.185280000000     0          
O        O      0.667650000000     0.485040000000     0.092130000000     0          
O        O      0.767050000000     0.402830000000     0.141790000000     0          
O        O      0.523620000000     0.746580000000     0.150200000000     0          
O        O      0.550350000000     0.172940000000     0.356810000000     0          
O        O      0.467520000000     0.134910000000     0.469410000000     0          
O        O      0.549630000000     0.532170000000     0.186350000000     0          
O        O      0.462310000000     0.733180000000     0.469240000000     0          
O        O      0.516610000000     0.699220000000     0.092130000000     0          
O        O      0.827060000000     0.836730000000     0.143190000000     0          
O        O      0.609950000000     0.781500000000     0.030960000000     0          
O        O      0.232950000000     0.597170000000     0.358210000000     0          
O        O      0.619390000000     0.852220000000     0.031210000000     0          
O        O      0.555820000000     0.247180000000     0.392900000000     0          
O        O      0.483470000000     0.119250000000     0.358210000000     0          
O        O      0.266820000000     0.523830000000     0.030760000000     0          
O        O      0.800060000000     0.707290000000     0.151010000000     0          
O        O      0.470430000000     0.530460000000     0.200910000000     0          
O        O      0.446180000000     0.476380000000     0.349800000000     0          
O        O      0.530460000000     0.931390000000     0.200910000000     0          
O        O      0.871360000000     0.470430000000     0.200910000000     0          
O        O      0.119250000000     0.232950000000     0.358210000000     0          
O        O      0.746580000000     0.776780000000     0.150200000000     0          
O        O      0.443030000000     0.210200000000     0.031210000000     0          
O        O      0.449650000000     0.827060000000     0.143190000000     0          
O        O      0.253420000000     0.223220000000     0.349800000000     0          
O        O      0.483390000000     0.300780000000     0.407870000000     0          
O        O      0.590960000000     0.485070000000     0.392300000000     0          
O        O      0.292710000000     0.498040000000     0.348990000000     0          
O        O      0.700470000000     0.409040000000     0.107700000000     0          
O        O      0.205300000000     0.462310000000     0.469240000000     0          
O        O      0.068610000000     0.128640000000     0.299090000000     0          
O        O      0.840530000000     0.549630000000     0.186350000000     0          
O        O      0.789800000000     0.380610000000     0.468790000000     0          
O        O      0.332350000000     0.514960000000     0.407870000000     0          
O        O      0.299530000000     0.590960000000     0.392300000000     0          
O        O      0.752820000000     0.770020000000     0.107100000000     0          
O        O      0.176930000000     0.159470000000     0.313650000000     0          
O        O      0.223220000000     0.446180000000     0.349800000000     0          
O        O      0.444180000000     0.752820000000     0.107100000000     0          
O        O      0.770650000000     0.493810000000     0.185280000000     0          
O        O      0.514930000000     0.806360000000     0.107700000000     0          
O        O      0.459320000000     0.449650000000     0.143190000000     0          
O        O      0.733180000000     0.476170000000     0.469240000000     0          
O        O      0.553820000000     0.523620000000     0.150200000000     0          
O        O      0.134910000000     0.471300000000     0.469410000000     0          
O        O      0.163270000000     0.540680000000     0.356810000000     0          
O        O      0.540680000000     0.550350000000     0.356810000000     0          
O        O      0.538620000000     0.555820000000     0.392900000000     0          
O        O      0.781500000000     0.451970000000     0.030960000000     0          
O        O      0.199940000000     0.292710000000     0.348990000000     0          
O        O      0.450370000000     0.467830000000     0.313650000000     0          
O        O      0.836730000000     0.459320000000     0.143190000000     0          
O        O      0.280420000000     0.609950000000     0.030960000000     0          
O        O      0.806360000000     0.700470000000     0.107700000000     0          
O        O      0.471300000000     0.803910000000     0.469410000000     0          
O        O      0.400090000000     0.123250000000     0.314720000000     0          
O        O      0.402830000000     0.516530000000     0.141790000000     0          
O        O      0.476380000000     0.253420000000     0.349800000000     0          
O        O      0.516530000000     0.880750000000     0.141790000000     0          
O        O      0.528700000000     0.196090000000     0.030590000000     0          
O        O      0.405270000000     0.199940000000     0.348990000000     0          
O        O      0.196090000000     0.532480000000     0.030590000000     0          
O        O      0.537690000000     0.266820000000     0.030760000000     0          
O        O      0.469540000000     0.068610000000     0.299090000000     0          
O        O      0.193640000000     0.299530000000     0.392300000000     0          
O        O      0.523830000000     0.794700000000     0.030760000000     0          
O        O      0.865090000000     0.528700000000     0.030590000000     0          
O        O      0.599910000000     0.876750000000     0.185280000000     0          
O        O      0.876750000000     0.770650000000     0.185280000000     0          
O        O      0.794700000000     0.537690000000     0.030760000000     0          
O        O      0.776780000000     0.553820000000     0.150200000000     0          
O        O      0.529570000000     0.469540000000     0.299090000000     0          
O        O      0.532170000000     0.823070000000     0.186350000000     0          
O        O      0.823070000000     0.840530000000     0.186350000000     0          
O        O      0.498040000000     0.405270000000     0.348990000000     0          
O        O      0.390050000000     0.218500000000     0.469040000000     0          
O        O      0.159470000000     0.450370000000     0.313650000000     0          
O        O      0.719580000000     0.390050000000     0.469040000000     0          
O        O      0.128640000000     0.529570000000     0.299090000000     0          
O        O      0.300780000000     0.332350000000     0.407870000000     0          
O        O      0.247180000000     0.229980000000     0.392900000000     0          
O        O      0.409040000000     0.514930000000     0.107700000000     0          
O        O      0.852220000000     0.443030000000     0.031210000000     0          
O        O      0.147780000000     0.556970000000     0.468790000000     0          
O        O      0.485070000000     0.193640000000     0.392300000000     0          
O        O      0.218500000000     0.548030000000     0.469040000000     0          
O        O      0.123250000000     0.229350000000     0.314720000000     0          
O        O      0.880750000000     0.767050000000     0.141790000000     0          
O        O      0.501960000000     0.594730000000     0.151010000000     0          
O        O      0.514960000000     0.483390000000     0.407870000000     0          
O        O      0.461380000000     0.444180000000     0.107100000000     0          
O        O      0.451970000000     0.280420000000     0.030960000000     0          
O        O      0.931390000000     0.871360000000     0.200910000000     0          
O        O      0.707290000000     0.501960000000     0.151010000000     0          
O        O      0.172940000000     0.163270000000     0.356810000000     0          
O        O      0.467830000000     0.176930000000     0.313650000000     0          
O        O      0.485040000000     0.516610000000     0.092130000000     0          
O        O      0.699220000000     0.667650000000     0.092130000000     0          
O        O      0.532480000000     0.865090000000     0.030590000000     0          
O        O      0.594730000000     0.800060000000     0.151010000000     0          
O        O      0.476170000000     0.205300000000     0.969240000000     0          
O        O      0.229980000000     0.538620000000     0.892900000000     0          
O        O      0.803910000000     0.467520000000     0.969410000000     0          
O        O      0.770020000000     0.461380000000     0.607100000000     0          
O        O      0.597170000000     0.483470000000     0.858210000000     0          
O        O      0.229350000000     0.506190000000     0.814720000000     0          
O        O      0.556970000000     0.789800000000     0.968790000000     0          
O        O      0.210200000000     0.619390000000     0.531210000000     0          
O        O      0.548030000000     0.719580000000     0.969040000000     0          
O        O      0.380610000000     0.147780000000     0.968790000000     0          
O        O      0.506190000000     0.400090000000     0.814720000000     0          
O        O      0.493810000000     0.599910000000     0.685280000000     0          
O        O      0.667650000000     0.485040000000     0.592130000000     0          
O        O      0.767050000000     0.402830000000     0.641790000000     0          
O        O      0.523620000000     0.746580000000     0.650200000000     0          
O        O      0.550350000000     0.172940000000     0.856810000000     0          
O        O      0.467520000000     0.134910000000     0.969410000000     0          
O        O      0.549630000000     0.532170000000     0.686350000000     0          
O        O      0.462310000000     0.733180000000     0.969240000000     0          
O        O      0.516610000000     0.699220000000     0.592130000000     0          
O        O      0.827060000000     0.836730000000     0.643190000000     0          
O        O      0.609950000000     0.781500000000     0.530960000000     0          
O        O      0.232950000000     0.597170000000     0.858210000000     0          
O        O      0.619390000000     0.852220000000     0.531210000000     0          
O        O      0.555820000000     0.247180000000     0.892900000000     0          
O        O      0.483470000000     0.119250000000     0.858210000000     0          
O        O      0.266820000000     0.523830000000     0.530760000000     0          
O        O      0.800060000000     0.707290000000     0.651010000000     0          
O        O      0.470430000000     0.530460000000     0.700910000000     0          
O        O      0.446180000000     0.476380000000     0.849800000000     0          
O        O      0.530460000000     0.931390000000     0.700910000000     0          
O        O      0.871360000000     0.470430000000     0.700910000000     0          
O        O      0.119250000000     0.232950000000     0.858210000000     0          
O        O      0.746580000000     0.776780000000     0.650200000000     0          
O        O      0.443030000000     0.210200000000     0.531210000000     0          
O        O      0.449650000000     0.827060000000     0.643190000000     0          
O        O      0.253420000000     0.223220000000     0.849800000000     0          
O        O      0.483390000000     0.300780000000     0.907870000000     0          
O        O      0.590960000000     0.485070000000     0.892300000000     0          
O        O      0.292710000000     0.498040000000     0.848990000000     0          
O        O      0.700470000000     0.409040000000     0.607700000000     0          
O        O      0.205300000000     0.462310000000     0.969240000000     0          
O        O      0.068610000000     0.128640000000     0.799090000000     0          
O        O      0.840530000000     0.549630000000     0.686350000000     0          
O        O      0.789800000000     0.380610000000     0.968790000000     0          
O        O      0.332350000000     0.514960000000     0.907870000000     0          
O        O      0.299530000000     0.590960000000     0.892300000000     0          
O        O      0.752820000000     0.770020000000     0.607100000000     0          
O        O      0.176930000000     0.159470000000     0.813650000000     0          
O        O      0.223220000000     0.446180000000     0.849800000000     0          
O        O      0.444180000000     0.752820000000     0.607100000000     0          
O        O      0.770650000000     0.493810000000     0.685280000000     0          
O        O      0.514930000000     0.806360000000     0.607700000000     0          
O        O      0.459320000000     0.449650000000     0.643190000000     0          
O        O      0.733180000000     0.476170000000     0.969240000000     0          
O        O      0.553820000000     0.523620000000     0.650200000000     0          
O        O      0.134910000000     0.471300000000     0.969410000000     0          
O        O      0.163270000000     0.540680000000     0.856810000000     0          
O        O      0.540680000000     0.550350000000     0.856810000000     0          
O        O      0.538620000000     0.555820000000     0.892900000000     0          
O        O      0.781500000000     0.451970000000     0.530960000000     0          
O        O      0.199940000000     0.292710000000     0.848990000000     0          
O        O      0.450370000000     0.467830000000     0.813650000000     0          
O        O      0.836730000000     0.459320000000     0.643190000000     0          
O        O      0.280420000000     0.609950000000     0.530960000000     0          
O        O      0.806360000000     0.700470000000     0.607700000000     0          
O        O      0.471300000000     0.803910000000     0.969410000000     0          
O        O      0.400090000000     0.123250000000     0.814720000000     0          
O        O      0.402830000000     0.516530000000     0.641790000000     0          
O        O      0.476380000000     0.253420000000     0.849800000000     0          
O        O      0.516530000000     0.880750000000     0.641790000000     0          
O        O      0.528700000000     0.196090000000     0.530590000000     0          
O        O      0.405270000000     0.199940000000     0.848990000000     0          
O        O      0.196090000000     0.532480000000     0.530590000000     0          
O        O      0.537690000000     0.266820000000     0.530760000000     0          
O        O      0.469540000000     0.068610000000     0.799090000000     0          
O        O      0.193640000000     0.299530000000     0.892300000000     0          
O        O      0.523830000000     0.794700000000     0.530760000000     0          
O        O      0.865090000000     0.528700000000     0.530590000000     0          
O        O      0.599910000000     0.876750000000     0.685280000000     0          
O        O      0.876750000000     0.770650000000     0.685280000000     0          
O        O      0.794700000000     0.537690000000     0.530760000000     0          
O        O      0.776780000000     0.553820000000     0.650200000000     0          
O        O      0.529570000000     0.469540000000     0.799090000000     0          
O        O      0.532170000000     0.823070000000     0.686350000000     0          
O        O      0.823070000000     0.840530000000     0.686350000000     0          
O        O      0.498040000000     0.405270000000     0.848990000000     0          
O        O      0.390050000000     0.218500000000     0.969040000000     0          
O        O      0.159470000000     0.450370000000     0.813650000000     0          
O        O      0.719580000000     0.390050000000     0.969040000000     0          
O        O      0.128640000000     0.529570000000     0.799090000000     0          
O        O      0.300780000000     0.332350000000     0.907870000000     0          
O        O      0.247180000000     0.229980000000     0.892900000000     0          
O        O      0.409040000000     0.514930000000     0.607700000000     0          
O        O      0.852220000000     0.443030000000     0.531210000000     0          
O        O      0.147780000000     0.556970000000     0.968790000000     0          
O        O      0.485070000000     0.193640000000     0.892300000000     0          
O        O      0.218500000000     0.548030000000     0.969040000000     0          
O        O      0.123250000000     0.229350000000     0.814720000000     0          
O        O      0.880750000000     0.767050000000     0.641790000000     0          
O        O      0.501960000000     0.594730000000     0.651010000000     0          
O        O      0.514960000000     0.483390000000     0.907870000000     0          
O        O      0.461380000000     0.444180000000     0.607100000000     0          
O        O      0.451970000000     0.280420000000     0.530960000000     0          
O        O      0.931390000000     0.871360000000     0.700910000000     0          
O        O      0.707290000000     0.501960000000     0.651010000000     0          
O        O      0.172940000000     0.163270000000     0.856810000000     0          
O        O      0.467830000000     0.176930000000     0.813650000000     0          
O        O      0.485040000000     0.516610000000     0.592130000000     0          
O        O      0.699220000000     0.667650000000     0.592130000000     0          
O        O      0.532480000000     0.865090000000     0.530590000000     0          
O        O      0.594730000000     0.800060000000     0.651010000000     0          
H        H      0.926200000000     0.899200000000     0.205400000000     0          
H        H      0.214500000000     0.746300000000     0.363300000000     0          
H        H      0.274500000000     0.896900000000     0.392200000000     0          
H        H      0.691300000000     0.786500000000     0.070500000000     0          
H        H      0.930700000000     0.614600000000     0.061900000000     0          
H        H      0.463900000000     0.182300000000     0.275400000000     0          
H        H      0.564600000000     0.770700000000     0.428000000000     0          
H        H      0.330200000000     0.519600000000     0.072200000000     0          
H        H      0.624800000000     0.330200000000     0.072200000000     0          
H        H      0.462300000000     0.207600000000     0.107000000000     0          
H        H      0.490100000000     0.112500000000     0.107800000000     0          
H        H      0.689400000000     0.500200000000     0.374800000000     0          
H        H      0.073800000000     0.100800000000     0.294600000000     0          
H        H      0.691600000000     0.934500000000     0.224400000000     0          
H        H      0.725500000000     0.103100000000     0.107800000000     0          
H        H      0.914700000000     0.435400000000     0.072000000000     0          
H        H      0.308700000000     0.213500000000     0.429500000000     0          
H        H      0.490800000000     0.069300000000     0.438100000000     0          
H        H      0.511600000000     0.926200000000     0.205400000000     0          
H        H      0.205800000000     0.468400000000     0.228300000000     0          
H        H      0.322100000000     0.501400000000     0.413400000000     0          
H        H      0.905800000000     0.445600000000     0.135300000000     0          
H        H      0.185800000000     0.375200000000     0.427800000000     0          
H        H      0.749200000000     0.011800000000     0.271700000000     0          
H        H      0.069300000000     0.385400000000     0.438100000000     0          
H        H      0.913100000000     0.631500000000     0.224600000000     0          
H        H      0.817700000000     0.913100000000     0.224600000000     0          
H        H      0.059900000000     0.445000000000     0.092200000000     0          
H        H      0.516100000000     0.679300000000     0.158500000000     0          
H        H      0.480400000000     0.185800000000     0.427800000000     0          
H        H      0.940100000000     0.555000000000     0.407800000000     0          
H        H      0.750600000000     0.310600000000     0.125200000000     0          
H        H      0.484600000000     0.511600000000     0.205400000000     0          
H        H      0.531600000000     0.749200000000     0.271700000000     0          
H        H      0.939800000000     0.750600000000     0.125200000000     0          
H        H      0.631500000000     0.536100000000     0.224600000000     0          
H        H      0.487900000000     0.019700000000     0.136700000000     0          
H        H      0.637700000000     0.516100000000     0.158500000000     0          
H        H      0.674600000000     0.677900000000     0.086600000000     0          
H        H      0.746300000000     0.512100000000     0.363300000000     0          
H        H      0.814200000000     0.624800000000     0.072200000000     0          
H        H      0.085300000000     0.564600000000     0.428000000000     0          
H        H      0.364800000000     0.825000000000     0.135300000000     0          
H        H      0.512100000000     0.980300000000     0.363300000000     0          
H        H      0.019700000000     0.785500000000     0.136700000000     0          
H        H      0.792400000000     0.248300000000     0.393000000000     0          
H        H      0.509200000000     0.930700000000     0.061900000000     0          
H        H      0.229300000000     0.708600000000     0.072000000000     0          
H        H      0.504700000000     0.325400000000     0.413400000000     0          
H        H      0.060200000000     0.249400000000     0.374800000000     0          
H        H      0.751700000000     0.006400000000     0.107000000000     0          
H        H      0.495300000000     0.674600000000     0.086600000000     0          
H        H      0.086900000000     0.368500000000     0.275400000000     0          
H        H      0.785500000000     0.253700000000     0.136700000000     0          
H        H      0.554400000000     0.635200000000     0.364700000000     0          
H        H      0.213500000000     0.550300000000     0.429500000000     0          
H        H      0.291400000000     0.085300000000     0.428000000000     0          
H        H      0.514300000000     0.691600000000     0.224400000000     0          
H        H      0.645500000000     0.308700000000     0.429500000000     0          
H        H      0.509900000000     0.887500000000     0.392200000000     0          
H        H      0.614600000000     0.193100000000     0.061900000000     0          
H        H      0.124500000000     0.739400000000     0.092200000000     0          
H        H      0.112500000000     0.725500000000     0.107800000000     0          
H        H      0.385400000000     0.806900000000     0.438100000000     0          
H        H      0.249400000000     0.689400000000     0.374800000000     0          
H        H      0.899200000000     0.484600000000     0.205400000000     0          
H        H      0.708600000000     0.914700000000     0.072000000000     0          
H        H      0.250800000000     0.988200000000     0.228300000000     0          
H        H      0.445600000000     0.364800000000     0.135300000000     0          
H        H      0.354500000000     0.691300000000     0.070500000000     0          
H        H      0.325400000000     0.322100000000     0.413400000000     0          
H        H      0.435400000000     0.229300000000     0.072000000000     0          
H        H      0.515400000000     0.488400000000     0.294600000000     0          
H        H      0.449700000000     0.354500000000     0.070500000000     0          
H        H      0.094200000000     0.554400000000     0.364700000000     0          
H        H      0.739400000000     0.059900000000     0.092200000000     0          
H        H      0.794200000000     0.531600000000     0.271700000000     0          
H        H      0.887500000000     0.274500000000     0.392200000000     0          
H        H      0.786500000000     0.449700000000     0.070500000000     0          
H        H      0.993600000000     0.537700000000     0.393000000000     0          
H        H      0.011800000000     0.794200000000     0.271700000000     0          
H        H      0.368500000000     0.463900000000     0.275400000000     0          
H        H      0.679300000000     0.800900000000     0.158500000000     0          
H        H      0.182300000000     0.086900000000     0.275400000000     0          
H        H      0.501400000000     0.504700000000     0.413400000000     0          
H        H      0.550300000000     0.645500000000     0.429500000000     0          
H        H      0.483900000000     0.320700000000     0.341500000000     0          
H        H      0.806900000000     0.490800000000     0.438100000000     0          
H        H      0.199100000000     0.362300000000     0.341500000000     0          
H        H      0.488400000000     0.073800000000     0.294600000000     0          
H        H      0.519600000000     0.814200000000     0.072200000000     0          
H        H      0.934500000000     0.757200000000     0.224400000000     0          
H        H      0.445000000000     0.124500000000     0.092200000000     0          
H        H      0.499800000000     0.939800000000     0.125200000000     0          
H        H      0.800900000000     0.637700000000     0.158500000000     0          
H        H      0.100800000000     0.515400000000     0.294600000000     0          
H        H      0.980300000000     0.214500000000     0.363300000000     0          
H        H      0.468400000000     0.250800000000     0.228300000000     0          
H        H      0.555000000000     0.875500000000     0.407800000000     0          
H        H      0.248300000000     0.993600000000     0.393000000000     0          
H        H      0.308400000000     0.065500000000     0.275600000000     0          
H        H      0.320700000000     0.199100000000     0.341500000000     0          
H        H      0.498600000000     0.495300000000     0.086600000000     0          
H        H      0.362300000000     0.483900000000     0.341500000000     0          
H        H      0.310600000000     0.499800000000     0.125200000000     0          
H        H      0.065500000000     0.242800000000     0.275600000000     0          
H        H      0.103100000000     0.490100000000     0.107800000000     0          
H        H      0.175000000000     0.094200000000     0.364700000000     0          
H        H      0.635200000000     0.175000000000     0.364700000000     0          
H        H      0.253700000000     0.487900000000     0.136700000000     0          
H        H      0.500200000000     0.060200000000     0.374800000000     0          
H        H      0.193100000000     0.509200000000     0.061900000000     0          
H        H      0.896900000000     0.509900000000     0.392200000000     0          
H        H      0.537700000000     0.792400000000     0.393000000000     0          
H        H      0.375200000000     0.669800000000     0.427800000000     0          
H        H      0.988200000000     0.205800000000     0.228300000000     0          
H        H      0.006400000000     0.462300000000     0.107000000000     0          
H        H      0.825000000000     0.905800000000     0.135300000000     0          
H        H      0.485700000000     0.308400000000     0.275600000000     0          
H        H      0.669800000000     0.480400000000     0.427800000000     0          
H        H      0.207600000000     0.751700000000     0.107000000000     0          
H        H      0.536100000000     0.817700000000     0.224600000000     0          
H        H      0.260600000000     0.940100000000     0.407800000000     0          
H        H      0.757200000000     0.514300000000     0.224400000000     0          
H        H      0.677900000000     0.498600000000     0.086600000000     0          
H        H      0.770700000000     0.291400000000     0.428000000000     0          
H        H      0.242800000000     0.485700000000     0.275600000000     0          
H        H      0.875500000000     0.260600000000     0.407800000000     0          
H        H      0.926200000000     0.899200000000     0.705400000000     0          
H        H      0.214500000000     0.746300000000     0.863300000000     0          
H        H      0.274500000000     0.896900000000     0.892200000000     0          
H        H      0.691300000000     0.786500000000     0.570500000000     0          
H        H      0.930700000000     0.614600000000     0.561900000000     0          
H        H      0.463900000000     0.182300000000     0.775400000000     0          
H        H      0.564600000000     0.770700000000     0.928000000000     0          
H        H      0.330200000000     0.519600000000     0.572200000000     0          
H        H      0.624800000000     0.330200000000     0.572200000000     0          
H        H      0.462300000000     0.207600000000     0.607000000000     0          
H        H      0.490100000000     0.112500000000     0.607800000000     0          
H        H      0.689400000000     0.500200000000     0.874800000000     0          
H        H      0.073800000000     0.100800000000     0.794600000000     0          
H        H      0.691600000000     0.934500000000     0.724400000000     0          
H        H      0.725500000000     0.103100000000     0.607800000000     0          
H        H      0.914700000000     0.435400000000     0.572000000000     0          
H        H      0.308700000000     0.213500000000     0.929500000000     0          
H        H      0.490800000000     0.069300000000     0.938100000000     0          
H        H      0.511600000000     0.926200000000     0.705400000000     0          
H        H      0.205800000000     0.468400000000     0.728300000000     0          
H        H      0.322100000000     0.501400000000     0.913400000000     0          
H        H      0.905800000000     0.445600000000     0.635300000000     0          
H        H      0.185800000000     0.375200000000     0.927800000000     0          
H        H      0.749200000000     0.011800000000     0.771700000000     0          
H        H      0.069300000000     0.385400000000     0.938100000000     0          
H        H      0.913100000000     0.631500000000     0.724600000000     0          
H        H      0.817700000000     0.913100000000     0.724600000000     0          
H        H      0.059900000000     0.445000000000     0.592200000000     0          
H        H      0.516100000000     0.679300000000     0.658500000000     0          
H        H      0.480400000000     0.185800000000     0.927800000000     0          
H        H      0.940100000000     0.555000000000     0.907800000000     0          
H        H      0.750600000000     0.310600000000     0.625200000000     0          
H        H      0.484600000000     0.511600000000     0.705400000000     0          
H        H      0.531600000000     0.749200000000     0.771700000000     0          
H        H      0.939800000000     0.750600000000     0.625200000000     0          
H        H      0.631500000000     0.536100000000     0.724600000000     0          
H        H      0.487900000000     0.019700000000     0.636700000000     0          
H        H      0.637700000000     0.516100000000     0.658500000000     0          
H        H      0.674600000000     0.677900000000     0.586600000000     0          
H        H      0.746300000000     0.512100000000     0.863300000000     0          
H        H      0.814200000000     0.624800000000     0.572200000000     0          
H        H      0.085300000000     0.564600000000     0.928000000000     0          
H        H      0.364800000000     0.825000000000     0.635300000000     0          
H        H      0.512100000000     0.980300000000     0.863300000000     0          
H        H      0.019700000000     0.785500000000     0.636700000000     0          
H        H      0.792400000000     0.248300000000     0.893000000000     0          
H        H      0.509200000000     0.930700000000     0.561900000000     0          
H        H      0.229300000000     0.708600000000     0.572000000000     0          
H        H      0.504700000000     0.325400000000     0.913400000000     0          
H        H      0.060200000000     0.249400000000     0.874800000000     0          
H        H      0.751700000000     0.006400000000     0.607000000000     0          
H        H      0.495300000000     0.674600000000     0.586600000000     0          
H        H      0.086900000000     0.368500000000     0.775400000000     0          
H        H      0.785500000000     0.253700000000     0.636700000000     0          
H        H      0.554400000000     0.635200000000     0.864700000000     0          
H        H      0.213500000000     0.550300000000     0.929500000000     0          
H        H      0.291400000000     0.085300000000     0.928000000000     0          
H        H      0.514300000000     0.691600000000     0.724400000000     0          
H        H      0.645500000000     0.308700000000     0.929500000000     0          
H        H      0.509900000000     0.887500000000     0.892200000000     0          
H        H      0.614600000000     0.193100000000     0.561900000000     0          
H        H      0.124500000000     0.739400000000     0.592200000000     0          
H        H      0.112500000000     0.725500000000     0.607800000000     0          
H        H      0.385400000000     0.806900000000     0.938100000000     0          
H        H      0.249400000000     0.689400000000     0.874800000000     0          
H        H      0.899200000000     0.484600000000     0.705400000000     0          
H        H      0.708600000000     0.914700000000     0.572000000000     0          
H        H      0.250800000000     0.988200000000     0.728300000000     0          
H        H      0.445600000000     0.364800000000     0.635300000000     0          
H        H      0.354500000000     0.691300000000     0.570500000000     0          
H        H      0.325400000000     0.322100000000     0.913400000000     0          
H        H      0.435400000000     0.229300000000     0.572000000000     0          
H        H      0.515400000000     0.488400000000     0.794600000000     0          
H        H      0.449700000000     0.354500000000     0.570500000000     0          
H        H      0.094200000000     0.554400000000     0.864700000000     0          
H        H      0.739400000000     0.059900000000     0.592200000000     0          
H        H      0.794200000000     0.531600000000     0.771700000000     0          
H        H      0.887500000000     0.274500000000     0.892200000000     0          
H        H      0.786500000000     0.449700000000     0.570500000000     0          
H        H      0.993600000000     0.537700000000     0.893000000000     0          
H        H      0.011800000000     0.794200000000     0.771700000000     0          
H        H      0.368500000000     0.463900000000     0.775400000000     0          
H        H      0.679300000000     0.800900000000     0.658500000000     0          
H        H      0.182300000000     0.086900000000     0.775400000000     0          
H        H      0.501400000000     0.504700000000     0.913400000000     0          
H        H      0.550300000000     0.645500000000     0.929500000000     0          
H        H      0.483900000000     0.320700000000     0.841500000000     0          
H        H      0.806900000000     0.490800000000     0.938100000000     0          
H        H      0.199100000000     0.362300000000     0.841500000000     0          
H        H      0.488400000000     0.073800000000     0.794600000000     0          
H        H      0.519600000000     0.814200000000     0.572200000000     0          
H        H      0.934500000000     0.757200000000     0.724400000000     0          
H        H      0.445000000000     0.124500000000     0.592200000000     0          
H        H      0.499800000000     0.939800000000     0.625200000000     0          
H        H      0.800900000000     0.637700000000     0.658500000000     0          
H        H      0.100800000000     0.515400000000     0.794600000000     0          
H        H      0.980300000000     0.214500000000     0.863300000000     0          
H        H      0.468400000000     0.250800000000     0.728300000000     0          
H        H      0.555000000000     0.875500000000     0.907800000000     0          
H        H      0.248300000000     0.993600000000     0.893000000000     0          
H        H      0.308400000000     0.065500000000     0.775600000000     0          
H        H      0.320700000000     0.199100000000     0.841500000000     0          
H        H      0.498600000000     0.495300000000     0.586600000000     0          
H        H      0.362300000000     0.483900000000     0.841500000000     0          
H        H      0.310600000000     0.499800000000     0.625200000000     0          
H        H      0.065500000000     0.242800000000     0.775600000000     0          
H        H      0.103100000000     0.490100000000     0.607800000000     0          
H        H      0.175000000000     0.094200000000     0.864700000000     0          
H        H      0.635200000000     0.175000000000     0.864700000000     0          
H        H      0.253700000000     0.487900000000     0.636700000000     0          
H        H      0.500200000000     0.060200000000     0.874800000000     0          
H        H      0.193100000000     0.509200000000     0.561900000000     0          
H        H      0.896900000000     0.509900000000     0.892200000000     0          
H        H      0.537700000000     0.792400000000     0.893000000000     0          
H        H      0.375200000000     0.669800000000     0.927800000000     0          
H        H      0.988200000000     0.205800000000     0.728300000000     0          
H        H      0.006400000000     0.462300000000     0.607000000000     0          
H        H      0.825000000000     0.905800000000     0.635300000000     0          
H        H      0.485700000000     0.308400000000     0.775600000000     0          
H        H      0.669800000000     0.480400000000     0.927800000000     0          
H        H      0.207600000000     0.751700000000     0.607000000000     0          
H        H      0.536100000000     0.817700000000     0.724600000000     0          
H        H      0.260600000000     0.940100000000     0.907800000000     0          
H        H      0.757200000000     0.514300000000     0.724400000000     0          
H        H      0.677900000000     0.498600000000     0.586600000000     0          
H        H      0.770700000000     0.291400000000     0.928000000000     0          
H        H      0.242800000000     0.485700000000     0.775600000000     0          
H        H      0.875500000000     0.260600000000     0.907800000000     0          
Cu       Cu     0.769620000000     0.732280000000     0.125710000000     0          
Cu       Cu     0.518190000000     0.480860000000     0.374285000000     0          
Cu       Cu     0.481810000000     0.519140000000     0.125715000000     0          
Cu       Cu     0.453330000000     0.165840000000     0.000005000000     0          
Cu       Cu     0.809680000000     0.475760000000     0.167430000000     0          
Cu       Cu     0.834160000000     0.453330000000     0.000000000000     0          
Cu       Cu     0.732280000000     0.481810000000     0.125710000000     0          
Cu       Cu     0.859100000000     0.809680000000     0.167430000000     0          
Cu       Cu     0.750720000000     0.464560000000     0.000000000000     0          
Cu       Cu     0.140900000000     0.190320000000     0.332570000000     0          
Cu       Cu     0.525180000000     0.859100000000     0.167430000000     0          
Cu       Cu     0.475760000000     0.525180000000     0.167430000000     0          
Cu       Cu     0.464560000000     0.249280000000     0.000000000000     0          
Cu       Cu     0.535440000000     0.750720000000     0.000000000000     0          
Cu       Cu     0.230380000000     0.267720000000     0.374290000000     0          
Cu       Cu     0.519140000000     0.769620000000     0.125715000000     0          
Cu       Cu     0.249280000000     0.535440000000     0.000000000000     0          
Cu       Cu     0.165840000000     0.546670000000     0.000000000000     0          
Cu       Cu     0.474820000000     0.140900000000     0.332570000000     0          
Cu       Cu     0.524240000000     0.474820000000     0.332570000000     0          
Cu       Cu     0.546670000000     0.834160000000     0.499995000000     0          
Cu       Cu     0.267720000000     0.518190000000     0.374290000000     0          
Cu       Cu     0.190320000000     0.524240000000     0.332570000000     0          
Cu       Cu     0.480860000000     0.230380000000     0.374285000000     0          
Cu       Cu     0.769620000000     0.732280000000     0.625710000000     0          
Cu       Cu     0.518190000000     0.480860000000     0.874285000000     0          
Cu       Cu     0.481810000000     0.519140000000     0.625715000000     0          
Cu       Cu     0.453330000000     0.165840000000     0.500005000000     0          
Cu       Cu     0.809680000000     0.475760000000     0.667430000000     0          
Cu       Cu     0.834160000000     0.453330000000     0.500000000000     0          
Cu       Cu     0.732280000000     0.481810000000     0.625710000000     0          
Cu       Cu     0.859100000000     0.809680000000     0.667430000000     0          
Cu       Cu     0.750720000000     0.464560000000     0.500000000000     0          
Cu       Cu     0.140900000000     0.190320000000     0.832570000000     0          
Cu       Cu     0.525180000000     0.859100000000     0.667430000000     0          
Cu       Cu     0.475760000000     0.525180000000     0.667430000000     0          
Cu       Cu     0.464560000000     0.249280000000     0.500000000000     0          
Cu       Cu     0.535440000000     0.750720000000     0.500000000000     0          
Cu       Cu     0.230380000000     0.267720000000     0.874290000000     0          
Cu       Cu     0.519140000000     0.769620000000     0.625715000000     0          
Cu       Cu     0.249280000000     0.535440000000     0.500000000000     0          
Cu       Cu     0.165840000000     0.546670000000     0.500000000000     0          
Cu       Cu     0.474820000000     0.140900000000     0.832570000000     0          
Cu       Cu     0.524240000000     0.474820000000     0.832570000000     0          
Cu       Cu     0.546670000000     0.834160000000     0.999995000000     0          
Cu       Cu     0.267720000000     0.518190000000     0.874290000000     0          
Cu       Cu     0.190320000000     0.524240000000     0.832570000000     0          
Cu       Cu     0.480860000000     0.230380000000     0.874285000000     0          
C        C      0.706330000000     0.229200000000     0.394400000000     0          
C        C      0.711350000000     0.819680000000     0.079530000000     0          
C        C      0.930550000000     0.697690000000     0.228420000000     0          
C        C      0.445040000000     0.345550000000     0.118210000000     0          
C        C      0.481680000000     0.300630000000     0.323930000000     0          
C        C      0.855750000000     0.202480000000     0.370440000000     0          
C        C      0.461600000000     0.144250000000     0.129560000000     0          
C        C      0.178750000000     0.479850000000     0.120620000000     0          
C        C      0.131370000000     0.388710000000     0.436150000000     0          
C        C      0.472380000000     0.224020000000     0.325950000000     0          
C        C      0.527620000000     0.775980000000     0.174050000000     0          
C        C      0.640040000000     0.309500000000     0.078210000000     0          
C        C      0.697690000000     0.526290000000     0.228420000000     0          
C        C      0.851740000000     0.203210000000     0.161840000000     0          
C        C      0.485830000000     0.147970000000     0.381680000000     0          
C        C      0.770080000000     0.214800000000     0.381510000000     0          
C        C      0.468550000000     0.219560000000     0.226360000000     0          
C        C      0.535120000000     0.834270000000     0.321380000000     0          
C        C      0.774520000000     0.168690000000     0.362310000000     0          
C        C      0.808490000000     0.535120000000     0.321380000000     0          
C        C      0.552290000000     0.660620000000     0.420470000000     0          
C        C      0.120470000000     0.851740000000     0.161840000000     0          
C        C      0.165730000000     0.892360000000     0.178620000000     0          
C        C      0.796790000000     0.528060000000     0.338160000000     0          
C        C      0.099250000000     0.351080000000     0.284360000000     0          
C        C      0.761210000000     0.841520000000     0.105000000000     0          
C        C      0.743390000000     0.364340000000     0.459160000000     0          
C        C      0.831310000000     0.049900000000     0.137690000000     0          
C        C      0.241440000000     0.777680000000     0.377140000000     0          
C        C      0.503070000000     0.942130000000     0.094780000000     0          
C        C      0.225480000000     0.831310000000     0.137690000000     0          
C        C      0.277530000000     0.615390000000     0.381680000000     0          
C        C      0.834910000000     0.529020000000     0.362440000000     0          
C        C      0.752570000000     0.496930000000     0.405220000000     0          
C        C      0.761310000000     0.474770000000     0.460340000000     0          
C        C      0.885130000000     0.538400000000     0.370440000000     0          
C        C      0.238790000000     0.158480000000     0.395000000000     0          
C        C      0.921840000000     0.715590000000     0.109800000000     0          
C        C      0.297760000000     0.504010000000     0.109800000000     0          
C        C      0.373450000000     0.473760000000     0.310740000000     0          
C        C      0.554960000000     0.654450000000     0.381790000000     0          
C        C      0.782420000000     0.813900000000     0.119560000000     0          
C        C      0.308890000000     0.152760000000     0.432680000000     0          
C        C      0.531450000000     0.780440000000     0.273640000000     0          
C        C      0.259070000000     0.516410000000     0.063850000000     0          
C        C      0.293380000000     0.086410000000     0.284420000000     0          
C        C      0.820480000000     0.572120000000     0.174050000000     0          
C        C      0.890870000000     0.445040000000     0.118210000000     0          
C        C      0.293670000000     0.770800000000     0.105600000000     0          
C        C      0.660620000000     0.288650000000     0.420470000000     0          
C        C      0.345550000000     0.791380000000     0.118210000000     0          
C        C      0.706620000000     0.913590000000     0.215580000000     0          
C        C      0.222320000000     0.487160000000     0.122860000000     0          
C        C      0.202480000000     0.885130000000     0.370440000000     0          
C        C      0.456700000000     0.425220000000     0.119560000000     0          
C        C      0.889970000000     0.195860000000     0.362440000000     0          
C        C      0.180320000000     0.552290000000     0.420470000000     0          
C        C      0.858790000000     0.544330000000     0.329610000000     0          
C        C      0.676770000000     0.864570000000     0.189120000000     0          
C        C      0.525230000000     0.840630000000     0.039660000000     0          
C        C      0.057570000000     0.767810000000     0.295400000000     0          
C        C      0.278460000000     0.103560000000     0.419660000000     0          
C        C      0.652770000000     0.518320000000     0.176070000000     0          
C        C      0.810610000000     0.162410000000     0.354320000000     0          
C        C      0.007060000000     0.451780000000     0.118490000000     0          
C        C      0.186100000000     0.543300000000     0.380440000000     0          
C        C      0.885110000000     0.141210000000     0.170390000000     0          
C        C      0.868630000000     0.611290000000     0.063850000000     0          
C        C      0.516410000000     0.868630000000     0.063850000000     0          
C        C      0.083720000000     0.366080000000     0.428270000000     0          
C        C      0.800430000000     0.114890000000     0.329610000000     0          
C        C      0.841520000000     0.448790000000     0.105000000000     0          
C        C      0.256610000000     0.635660000000     0.040840000000     0          
C        C      0.114870000000     0.461600000000     0.129560000000     0          
C        C      0.049900000000     0.444070000000     0.137690000000     0          
C        C      0.834270000000     0.107640000000     0.321380000000     0          
C        C      0.444070000000     0.225480000000     0.137690000000     0          
C        C      0.109130000000     0.554960000000     0.381790000000     0          
C        C      0.528060000000     0.879530000000     0.338160000000     0          
C        C      0.504010000000     0.921840000000     0.109800000000     0          
C        C      0.302310000000     0.473710000000     0.271580000000     0          
C        C      0.984170000000     0.233160000000     0.226360000000     0          
C        C      0.135430000000     0.298530000000     0.310880000000     0          
C        C      0.069450000000     0.302310000000     0.271580000000     0          
C        C      0.443530000000     0.287400000000     0.067320000000     0          
C        C      0.529020000000     0.889970000000     0.362440000000     0          
C        C      0.514170000000     0.852030000000     0.118320000000     0          
C        C      0.284410000000     0.702240000000     0.390200000000     0          
C        C      0.165090000000     0.470980000000     0.137560000000     0          
C        C      0.766840000000     0.531450000000     0.273640000000     0          
C        C      0.715590000000     0.297760000000     0.109800000000     0          
C        C      0.177010000000     0.942430000000     0.204600000000     0          
C        C      0.451780000000     0.229920000000     0.118490000000     0          
C        C      0.821250000000     0.520150000000     0.379380000000     0          
C        C      0.913590000000     0.724540000000     0.215580000000     0          
C        C      0.937510000000     0.238610000000     0.379380000000     0          
C        C      0.082470000000     0.559600000000     0.394400000000     0          
C        C      0.772820000000     0.490460000000     0.428270000000     0          
C        C      0.208620000000     0.109130000000     0.381790000000     0          
C        C      0.722470000000     0.384610000000     0.118320000000     0          
C        C      0.023400000000     0.758560000000     0.122860000000     0          
C        C      0.240850000000     0.069450000000     0.271580000000     0          
C        C      0.482430000000     0.293380000000     0.284420000000     0          
C        C      0.110030000000     0.804140000000     0.137560000000     0          
C        C      0.518320000000     0.699370000000     0.176070000000     0          
C        C      0.992940000000     0.548220000000     0.381510000000     0          
C        C      0.976600000000     0.241440000000     0.377140000000     0          
C        C      0.473710000000     0.240850000000     0.271580000000     0          
C        C      0.670980000000     0.488570000000     0.398210000000     0          
C        C      0.247430000000     0.503070000000     0.094780000000     0          
C        C      0.635660000000     0.825070000000     0.040840000000     0          
C        C      0.648920000000     0.530530000000     0.215640000000     0          
C        C      0.574780000000     0.217580000000     0.380440000000     0          
C        C      0.813900000000     0.456700000000     0.119560000000     0          
C        C      0.845610000000     0.728870000000     0.174020000000     0          
C        C      0.168690000000     0.950100000000     0.362310000000     0          
C        C      0.152760000000     0.556470000000     0.432680000000     0          
C        C      0.767810000000     0.533230000000     0.295400000000     0          
C        C      0.900750000000     0.648920000000     0.215640000000     0          
C        C      0.275460000000     0.482430000000     0.284420000000     0          
C        C      0.692150000000     0.329020000000     0.101790000000     0          
C        C      0.712600000000     0.308890000000     0.432680000000     0          
C        C      0.544330000000     0.800430000000     0.329610000000     0          
C        C      0.490460000000     0.083720000000     0.428270000000     0          
C        C      0.686490000000     0.247430000000     0.094780000000     0          
C        C      0.825070000000     0.446020000000     0.040840000000     0          
C        C      0.942430000000     0.232190000000     0.204600000000     0          
C        C      0.471940000000     0.120470000000     0.161840000000     0          
C        C      0.804140000000     0.165090000000     0.137560000000     0          
C        C      0.144250000000     0.797520000000     0.129560000000     0          
C        C      0.232190000000     0.466770000000     0.204600000000     0          
C        C      0.556470000000     0.712600000000     0.432680000000     0          
C        C      0.464880000000     0.165730000000     0.178620000000     0          
C        C      0.699370000000     0.833820000000     0.176070000000     0          
C        C      0.309500000000     0.516380000000     0.078210000000     0          
C        C      0.248030000000     0.147720000000     0.310740000000     0          
C        C      0.690500000000     0.483620000000     0.421790000000     0          
C        C      0.103560000000     0.560860000000     0.419660000000     0          
C        C      0.572120000000     0.527620000000     0.174050000000     0          
C        C      0.479850000000     0.062490000000     0.120620000000     0          
C        C      0.313510000000     0.752570000000     0.405220000000     0          
C        C      0.199570000000     0.885110000000     0.170390000000     0          
C        C      0.751970000000     0.852280000000     0.189260000000     0          
C        C      0.555930000000     0.774520000000     0.362310000000     0          
C        C      0.086410000000     0.275460000000     0.284420000000     0          
C        C      0.728870000000     0.502430000000     0.174020000000     0          
C        C      0.777680000000     0.512840000000     0.377140000000     0          
C        C      0.229920000000     0.785200000000     0.118490000000     0          
C        C      0.633920000000     0.227180000000     0.071730000000     0          
C        C      0.153080000000     0.359960000000     0.421790000000     0          
C        C      0.701470000000     0.513670000000     0.189120000000     0          
C        C      0.538400000000     0.855750000000     0.370440000000     0          
C        C      0.486330000000     0.323230000000     0.310880000000     0          
C        C      0.512840000000     0.976600000000     0.377140000000     0          
C        C      0.148260000000     0.796790000000     0.338160000000     0          
C        C      0.469470000000     0.217640000000     0.284360000000     0          
C        C      0.879530000000     0.148260000000     0.338160000000     0          
C        C      0.502430000000     0.619170000000     0.174020000000     0          
C        C      0.530530000000     0.782360000000     0.215640000000     0          
C        C      0.015830000000     0.766840000000     0.273640000000     0          
C        C      0.466770000000     0.177010000000     0.204600000000     0          
C        C      0.159370000000     0.445910000000     0.460340000000     0          
C        C      0.107640000000     0.808490000000     0.321380000000     0          
C        C      0.615390000000     0.485830000000     0.381680000000     0          
C        C      0.791380000000     0.890870000000     0.118210000000     0          
C        C      0.339380000000     0.711350000000     0.079530000000     0          
C        C      0.553980000000     0.743390000000     0.459160000000     0          
C        C      0.721540000000     0.896440000000     0.080340000000     0          
C        C      0.351080000000     0.469470000000     0.284360000000     0          
C        C      0.619170000000     0.845610000000     0.174020000000     0          
C        C      0.797520000000     0.114870000000     0.129560000000     0          
C        C      0.307850000000     0.670980000000     0.398210000000     0          
C        C      0.495990000000     0.078160000000     0.390200000000     0          
C        C      0.388710000000     0.740930000000     0.436150000000     0          
C        C      0.224020000000     0.179520000000     0.325950000000     0          
C        C      0.298530000000     0.486330000000     0.310880000000     0          
C        C      0.833820000000     0.652770000000     0.176070000000     0          
C        C      0.323230000000     0.135430000000     0.310880000000     0          
C        C      0.446020000000     0.256610000000     0.040840000000     0          
C        C      0.474770000000     0.159370000000     0.460340000000     0          
C        C      0.917530000000     0.440400000000     0.105600000000     0          
C        C      0.551210000000     0.631520000000     0.395000000000     0          
C        C      0.078160000000     0.284410000000     0.390200000000     0          
C        C      0.950100000000     0.555930000000     0.362310000000     0          
C        C      0.174930000000     0.553980000000     0.459160000000     0          
C        C      0.427880000000     0.472380000000     0.325950000000     0          
C        C      0.758560000000     0.222320000000     0.122860000000     0          
C        C      0.548220000000     0.770080000000     0.381510000000     0          
C        C      0.147970000000     0.277530000000     0.381680000000     0          
C        C      0.141210000000     0.455670000000     0.170390000000     0          
C        C      0.822990000000     0.057570000000     0.295400000000     0          
C        C      0.219560000000     0.984170000000     0.226360000000     0          
C        C      0.509540000000     0.916280000000     0.071730000000     0          
C        C      0.702240000000     0.495990000000     0.390200000000     0          
C        C      0.125440000000     0.307850000000     0.398210000000     0          
C        C      0.496930000000     0.057870000000     0.405220000000     0          
C        C      0.511430000000     0.874560000000     0.101790000000     0          
C        C      0.057870000000     0.313510000000     0.405220000000     0          
C        C      0.488570000000     0.125440000000     0.398210000000     0          
C        C      0.440400000000     0.293670000000     0.105600000000     0          
C        C      0.497570000000     0.380830000000     0.325980000000     0          
C        C      0.217580000000     0.186100000000     0.380440000000     0          
C        C      0.162410000000     0.898030000000     0.354320000000     0          
C        C      0.238610000000     0.821250000000     0.379380000000     0          
C        C      0.654450000000     0.208620000000     0.381790000000     0          
C        C      0.846920000000     0.640040000000     0.078210000000     0          
C        C      0.425220000000     0.782420000000     0.119560000000     0          
C        C      0.626550000000     0.526240000000     0.189260000000     0          
C        C      0.229200000000     0.082470000000     0.394400000000     0          
C        C      0.770800000000     0.917530000000     0.105600000000     0          
C        C      0.761390000000     0.178750000000     0.120620000000     0          
C        C      0.487160000000     0.023400000000     0.122860000000     0          
C        C      0.364340000000     0.174930000000     0.459160000000     0          
C        C      0.455670000000     0.199570000000     0.170390000000     0          
C        C      0.546230000000     0.810610000000     0.354320000000     0          
C        C      0.264240000000     0.721540000000     0.080340000000     0          
C        C      0.366080000000     0.772820000000     0.428270000000     0          
C        C      0.847240000000     0.443530000000     0.067320000000     0          
C        C      0.483590000000     0.131370000000     0.436150000000     0          
C        C      0.347230000000     0.481680000000     0.323930000000     0          
C        C      0.158480000000     0.551210000000     0.395000000000     0          
C        C      0.203210000000     0.471940000000     0.161840000000     0          
C        C      0.516380000000     0.846920000000     0.078210000000     0          
C        C      0.837590000000     0.101970000000     0.145680000000     0          
C        C      0.445910000000     0.761310000000     0.460340000000     0          
C        C      0.775980000000     0.820480000000     0.174050000000     0          
C        C      0.520150000000     0.937510000000     0.379380000000     0          
C        C      0.533230000000     0.822990000000     0.295400000000     0          
C        C      0.483620000000     0.153080000000     0.421790000000     0          
C        C      0.942130000000     0.686490000000     0.094780000000     0          
C        C      0.101970000000     0.453770000000     0.145680000000     0          
C        C      0.380830000000     0.154390000000     0.325980000000     0          
C        C      0.359960000000     0.690500000000     0.421790000000     0          
C        C      0.892360000000     0.191510000000     0.178620000000     0          
C        C      0.470980000000     0.110030000000     0.137560000000     0          
C        C      0.554090000000     0.238690000000     0.039660000000     0          
C        C      0.840630000000     0.554090000000     0.039660000000     0          
C        C      0.898030000000     0.546230000000     0.354320000000     0          
C        C      0.233160000000     0.468550000000     0.226360000000     0          
C        C      0.147720000000     0.373450000000     0.310740000000     0          
C        C      0.195860000000     0.834910000000     0.362440000000     0          
C        C      0.384610000000     0.514170000000     0.118320000000     0          
C        C      0.517570000000     0.706620000000     0.215580000000     0          
C        C      0.217640000000     0.099250000000     0.284360000000     0          
C        C      0.559600000000     0.706330000000     0.394400000000     0          
C        C      0.271130000000     0.497570000000     0.325980000000     0          
C        C      0.368480000000     0.761210000000     0.105000000000     0          
C        C      0.439140000000     0.264240000000     0.080340000000     0          
C        C      0.166180000000     0.347230000000     0.323930000000     0          
C        C      0.735760000000     0.278460000000     0.419660000000     0          
C        C      0.329020000000     0.511430000000     0.101790000000     0          
C        C      0.526240000000     0.751970000000     0.189260000000     0          
C        C      0.189390000000     0.837590000000     0.145680000000     0          
C        C      0.062490000000     0.761390000000     0.120620000000     0          
C        C      0.214800000000     0.992940000000     0.381510000000     0          
C        C      0.691110000000     0.847240000000     0.067320000000     0          
C        C      0.227180000000     0.509540000000     0.071730000000     0          
C        C      0.473760000000     0.248030000000     0.310740000000     0          
C        C      0.526290000000     0.759150000000     0.228420000000     0          
C        C      0.288650000000     0.180320000000     0.420470000000     0          
C        C      0.852030000000     0.722470000000     0.118320000000     0          
C        C      0.780440000000     0.015830000000     0.273640000000     0          
C        C      0.191510000000     0.464880000000     0.178620000000     0          
C        C      0.896440000000     0.439140000000     0.080340000000     0          
C        C      0.874560000000     0.692150000000     0.101790000000     0          
C        C      0.238690000000     0.525230000000     0.039660000000     0          
C        C      0.759150000000     0.930550000000     0.228420000000     0          
C        C      0.819680000000     0.447710000000     0.079530000000     0          
C        C      0.611290000000     0.259070000000     0.063850000000     0          
C        C      0.154390000000     0.271130000000     0.325980000000     0          
C        C      0.852280000000     0.626550000000     0.189260000000     0          
C        C      0.448790000000     0.368480000000     0.105000000000     0          
C        C      0.287400000000     0.691110000000     0.067320000000     0          
C        C      0.782360000000     0.900750000000     0.215640000000     0          
C        C      0.631520000000     0.238790000000     0.395000000000     0          
C        C      0.543300000000     0.574780000000     0.380440000000     0          
C        C      0.114890000000     0.858790000000     0.329610000000     0          
C        C      0.560860000000     0.735760000000     0.419660000000     0          
C        C      0.740930000000     0.483590000000     0.436150000000     0          
C        C      0.453770000000     0.189390000000     0.145680000000     0          
C        C      0.785200000000     0.007060000000     0.118490000000     0          
C        C      0.179520000000     0.427880000000     0.325950000000     0          
C        C      0.916280000000     0.633920000000     0.071730000000     0          
C        C      0.513670000000     0.676770000000     0.189120000000     0          
C        C      0.864570000000     0.701470000000     0.189120000000     0          
C        C      0.724540000000     0.517570000000     0.215580000000     0          
C        C      0.300630000000     0.166180000000     0.323930000000     0          
C        C      0.447710000000     0.339380000000     0.079530000000     0          
C        C      0.706330000000     0.229200000000     0.894400000000     0          
C        C      0.711350000000     0.819680000000     0.579530000000     0          
C        C      0.930550000000     0.697690000000     0.728420000000     0          
C        C      0.445040000000     0.345550000000     0.618210000000     0          
C        C      0.481680000000     0.300630000000     0.823930000000     0          
C        C      0.855750000000     0.202480000000     0.870440000000     0          
C        C      0.461600000000     0.144250000000     0.629560000000     0          
C        C      0.178750000000     0.479850000000     0.620620000000     0          
C        C      0.131370000000     0.388710000000     0.936150000000     0          
C        C      0.472380000000     0.224020000000     0.825950000000     0          
C        C      0.527620000000     0.775980000000     0.674050000000     0          
C        C      0.640040000000     0.309500000000     0.578210000000     0          
C        C      0.697690000000     0.526290000000     0.728420000000     0          
C        C      0.851740000000     0.203210000000     0.661840000000     0          
C        C      0.485830000000     0.147970000000     0.881680000000     0          
C        C      0.770080000000     0.214800000000     0.881510000000     0          
C        C      0.468550000000     0.219560000000     0.726360000000     0          
C        C      0.535120000000     0.834270000000     0.821380000000     0          
C        C      0.774520000000     0.168690000000     0.862310000000     0          
C        C      0.808490000000     0.535120000000     0.821380000000     0          
C        C      0.552290000000     0.660620000000     0.920470000000     0          
C        C      0.120470000000     0.851740000000     0.661840000000     0          
C        C      0.165730000000     0.892360000000     0.678620000000     0          
C        C      0.796790000000     0.528060000000     0.838160000000     0          
C        C      0.099250000000     0.351080000000     0.784360000000     0          
C        C      0.761210000000     0.841520000000     0.605000000000     0          
C        C      0.743390000000     0.364340000000     0.959160000000     0          
C        C      0.831310000000     0.049900000000     0.637690000000     0          
C        C      0.241440000000     0.777680000000     0.877140000000     0          
C        C      0.503070000000     0.942130000000     0.594780000000     0          
C        C      0.225480000000     0.831310000000     0.637690000000     0          
C        C      0.277530000000     0.615390000000     0.881680000000     0          
C        C      0.834910000000     0.529020000000     0.862440000000     0          
C        C      0.752570000000     0.496930000000     0.905220000000     0          
C        C      0.761310000000     0.474770000000     0.960340000000     0          
C        C      0.885130000000     0.538400000000     0.870440000000     0          
C        C      0.238790000000     0.158480000000     0.895000000000     0          
C        C      0.921840000000     0.715590000000     0.609800000000     0          
C        C      0.297760000000     0.504010000000     0.609800000000     0          
C        C      0.373450000000     0.473760000000     0.810740000000     0          
C        C      0.554960000000     0.654450000000     0.881790000000     0          
C        C      0.782420000000     0.813900000000     0.619560000000     0          
C        C      0.308890000000     0.152760000000     0.932680000000     0          
C        C      0.531450000000     0.780440000000     0.773640000000     0          
C        C      0.259070000000     0.516410000000     0.563850000000     0          
C        C      0.293380000000     0.086410000000     0.784420000000     0          
C        C      0.820480000000     0.572120000000     0.674050000000     0          
C        C      0.890870000000     0.445040000000     0.618210000000     0          
C        C      0.293670000000     0.770800000000     0.605600000000     0          
C        C      0.660620000000     0.288650000000     0.920470000000     0          
C        C      0.345550000000     0.791380000000     0.618210000000     0          
C        C      0.706620000000     0.913590000000     0.715580000000     0          
C        C      0.222320000000     0.487160000000     0.622860000000     0          
C        C      0.202480000000     0.885130000000     0.870440000000     0          
C        C      0.456700000000     0.425220000000     0.619560000000     0          
C        C      0.889970000000     0.195860000000     0.862440000000     0          
C        C      0.180320000000     0.552290000000     0.920470000000     0          
C        C      0.858790000000     0.544330000000     0.829610000000     0          
C        C      0.676770000000     0.864570000000     0.689120000000     0          
C        C      0.525230000000     0.840630000000     0.539660000000     0          
C        C      0.057570000000     0.767810000000     0.795400000000     0          
C        C      0.278460000000     0.103560000000     0.919660000000     0          
C        C      0.652770000000     0.518320000000     0.676070000000     0          
C        C      0.810610000000     0.162410000000     0.854320000000     0          
C        C      0.007060000000     0.451780000000     0.618490000000     0          
C        C      0.186100000000     0.543300000000     0.880440000000     0          
C        C      0.885110000000     0.141210000000     0.670390000000     0          
C        C      0.868630000000     0.611290000000     0.563850000000     0          
C        C      0.516410000000     0.868630000000     0.563850000000     0          
C        C      0.083720000000     0.366080000000     0.928270000000     0          
C        C      0.800430000000     0.114890000000     0.829610000000     0          
C        C      0.841520000000     0.448790000000     0.605000000000     0          
C        C      0.256610000000     0.635660000000     0.540840000000     0          
C        C      0.114870000000     0.461600000000     0.629560000000     0          
C        C      0.049900000000     0.444070000000     0.637690000000     0          
C        C      0.834270000000     0.107640000000     0.821380000000     0          
C        C      0.444070000000     0.225480000000     0.637690000000     0          
C        C      0.109130000000     0.554960000000     0.881790000000     0          
C        C      0.528060000000     0.879530000000     0.838160000000     0          
C        C      0.504010000000     0.921840000000     0.609800000000     0          
C        C      0.302310000000     0.473710000000     0.771580000000     0          
C        C      0.984170000000     0.233160000000     0.726360000000     0          
C        C      0.135430000000     0.298530000000     0.810880000000     0          
C        C      0.069450000000     0.302310000000     0.771580000000     0          
C        C      0.443530000000     0.287400000000     0.567320000000     0          
C        C      0.529020000000     0.889970000000     0.862440000000     0          
C        C      0.514170000000     0.852030000000     0.618320000000     0          
C        C      0.284410000000     0.702240000000     0.890200000000     0          
C        C      0.165090000000     0.470980000000     0.637560000000     0          
C        C      0.766840000000     0.531450000000     0.773640000000     0          
C        C      0.715590000000     0.297760000000     0.609800000000     0          
C        C      0.177010000000     0.942430000000     0.704600000000     0          
C        C      0.451780000000     0.229920000000     0.618490000000     0          
C        C      0.821250000000     0.520150000000     0.879380000000     0          
C        C      0.913590000000     0.724540000000     0.715580000000     0          
C        C      0.937510000000     0.238610000000     0.879380000000     0          
C        C      0.082470000000     0.559600000000     0.894400000000     0          
C        C      0.772820000000     0.490460000000     0.928270000000     0          
C        C      0.208620000000     0.109130000000     0.881790000000     0          
C        C      0.722470000000     0.384610000000     0.618320000000     0          
C        C      0.023400000000     0.758560000000     0.622860000000     0          
C        C      0.240850000000     0.069450000000     0.771580000000     0          
C        C      0.482430000000     0.293380000000     0.784420000000     0          
C        C      0.110030000000     0.804140000000     0.637560000000     0          
C        C      0.518320000000     0.699370000000     0.676070000000     0          
C        C      0.992940000000     0.548220000000     0.881510000000     0          
C        C      0.976600000000     0.241440000000     0.877140000000     0          
C        C      0.473710000000     0.240850000000     0.771580000000     0          
C        C      0.670980000000     0.488570000000     0.898210000000     0          
C        C      0.247430000000     0.503070000000     0.594780000000     0          
C        C      0.635660000000     0.825070000000     0.540840000000     0          
C        C      0.648920000000     0.530530000000     0.715640000000     0          
C        C      0.574780000000     0.217580000000     0.880440000000     0          
C        C      0.813900000000     0.456700000000     0.619560000000     0          
C        C      0.845610000000     0.728870000000     0.674020000000     0          
C        C      0.168690000000     0.950100000000     0.862310000000     0          
C        C      0.152760000000     0.556470000000     0.932680000000     0          
C        C      0.767810000000     0.533230000000     0.795400000000     0          
C        C      0.900750000000     0.648920000000     0.715640000000     0          
C        C      0.275460000000     0.482430000000     0.784420000000     0          
C        C      0.692150000000     0.329020000000     0.601790000000     0          
C        C      0.712600000000     0.308890000000     0.932680000000     0          
C        C      0.544330000000     0.800430000000     0.829610000000     0          
C        C      0.490460000000     0.083720000000     0.928270000000     0          
C        C      0.686490000000     0.247430000000     0.594780000000     0          
C        C      0.825070000000     0.446020000000     0.540840000000     0          
C        C      0.942430000000     0.232190000000     0.704600000000     0          
C        C      0.471940000000     0.120470000000     0.661840000000     0          
C        C      0.804140000000     0.165090000000     0.637560000000     0          
C        C      0.144250000000     0.797520000000     0.629560000000     0          
C        C      0.232190000000     0.466770000000     0.704600000000     0          
C        C      0.556470000000     0.712600000000     0.932680000000     0          
C        C      0.464880000000     0.165730000000     0.678620000000     0          
C        C      0.699370000000     0.833820000000     0.676070000000     0          
C        C      0.309500000000     0.516380000000     0.578210000000     0          
C        C      0.248030000000     0.147720000000     0.810740000000     0          
C        C      0.690500000000     0.483620000000     0.921790000000     0          
C        C      0.103560000000     0.560860000000     0.919660000000     0          
C        C      0.572120000000     0.527620000000     0.674050000000     0          
C        C      0.479850000000     0.062490000000     0.620620000000     0          
C        C      0.313510000000     0.752570000000     0.905220000000     0          
C        C      0.199570000000     0.885110000000     0.670390000000     0          
C        C      0.751970000000     0.852280000000     0.689260000000     0          
C        C      0.555930000000     0.774520000000     0.862310000000     0          
C        C      0.086410000000     0.275460000000     0.784420000000     0          
C        C      0.728870000000     0.502430000000     0.674020000000     0          
C        C      0.777680000000     0.512840000000     0.877140000000     0          
C        C      0.229920000000     0.785200000000     0.618490000000     0          
C        C      0.633920000000     0.227180000000     0.571730000000     0          
C        C      0.153080000000     0.359960000000     0.921790000000     0          
C        C      0.701470000000     0.513670000000     0.689120000000     0          
C        C      0.538400000000     0.855750000000     0.870440000000     0          
C        C      0.486330000000     0.323230000000     0.810880000000     0          
C        C      0.512840000000     0.976600000000     0.877140000000     0          
C        C      0.148260000000     0.796790000000     0.838160000000     0          
C        C      0.469470000000     0.217640000000     0.784360000000     0          
C        C      0.879530000000     0.148260000000     0.838160000000     0          
C        C      0.502430000000     0.619170000000     0.674020000000     0          
C        C      0.530530000000     0.782360000000     0.715640000000     0          
C        C      0.015830000000     0.766840000000     0.773640000000     0          
C        C      0.466770000000     0.177010000000     0.704600000000     0          
C        C      0.159370000000     0.445910000000     0.960340000000     0          
C        C      0.107640000000     0.808490000000     0.821380000000     0          
C        C      0.615390000000     0.485830000000     0.881680000000     0          
C        C      0.791380000000     0.890870000000     0.618210000000     0          
C        C      0.339380000000     0.711350000000     0.579530000000     0          
C        C      0.553980000000     0.743390000000     0.959160000000     0          
C        C      0.721540000000     0.896440000000     0.580340000000     0          
C        C      0.351080000000     0.469470000000     0.784360000000     0          
C        C      0.619170000000     0.845610000000     0.674020000000     0          
C        C      0.797520000000     0.114870000000     0.629560000000     0          
C        C      0.307850000000     0.670980000000     0.898210000000     0          
C        C      0.495990000000     0.078160000000     0.890200000000     0          
C        C      0.388710000000     0.740930000000     0.936150000000     0          
C        C      0.224020000000     0.179520000000     0.825950000000     0          
C        C      0.298530000000     0.486330000000     0.810880000000     0          
C        C      0.833820000000     0.652770000000     0.676070000000     0          
C        C      0.323230000000     0.135430000000     0.810880000000     0          
C        C      0.446020000000     0.256610000000     0.540840000000     0          
C        C      0.474770000000     0.159370000000     0.960340000000     0          
C        C      0.917530000000     0.440400000000     0.605600000000     0          
C        C      0.551210000000     0.631520000000     0.895000000000     0          
C        C      0.078160000000     0.284410000000     0.890200000000     0          
C        C      0.950100000000     0.555930000000     0.862310000000     0          
C        C      0.174930000000     0.553980000000     0.959160000000     0          
C        C      0.427880000000     0.472380000000     0.825950000000     0          
C        C      0.758560000000     0.222320000000     0.622860000000     0          
C        C      0.548220000000     0.770080000000     0.881510000000     0          
C        C      0.147970000000     0.277530000000     0.881680000000     0          
C        C      0.141210000000     0.455670000000     0.670390000000     0          
C        C      0.822990000000     0.057570000000     0.795400000000     0          
C        C      0.219560000000     0.984170000000     0.726360000000     0          
C        C      0.509540000000     0.916280000000     0.571730000000     0          
C        C      0.702240000000     0.495990000000     0.890200000000     0          
C        C      0.125440000000     0.307850000000     0.898210000000     0          
C        C      0.496930000000     0.057870000000     0.905220000000     0          
C        C      0.511430000000     0.874560000000     0.601790000000     0          
C        C      0.057870000000     0.313510000000     0.905220000000     0          
C        C      0.488570000000     0.125440000000     0.898210000000     0          
C        C      0.440400000000     0.293670000000     0.605600000000     0          
C        C      0.497570000000     0.380830000000     0.825980000000     0          
C        C      0.217580000000     0.186100000000     0.880440000000     0          
C        C      0.162410000000     0.898030000000     0.854320000000     0          
C        C      0.238610000000     0.821250000000     0.879380000000     0          
C        C      0.654450000000     0.208620000000     0.881790000000     0          
C        C      0.846920000000     0.640040000000     0.578210000000     0          
C        C      0.425220000000     0.782420000000     0.619560000000     0          
C        C      0.626550000000     0.526240000000     0.689260000000     0          
C        C      0.229200000000     0.082470000000     0.894400000000     0          
C        C      0.770800000000     0.917530000000     0.605600000000     0          
C        C      0.761390000000     0.178750000000     0.620620000000     0          
C        C      0.487160000000     0.023400000000     0.622860000000     0          
C        C      0.364340000000     0.174930000000     0.959160000000     0          
C        C      0.455670000000     0.199570000000     0.670390000000     0          
C        C      0.546230000000     0.810610000000     0.854320000000     0          
C        C      0.264240000000     0.721540000000     0.580340000000     0          
C        C      0.366080000000     0.772820000000     0.928270000000     0          
C        C      0.847240000000     0.443530000000     0.567320000000     0          
C        C      0.483590000000     0.131370000000     0.936150000000     0          
C        C      0.347230000000     0.481680000000     0.823930000000     0          
C        C      0.158480000000     0.551210000000     0.895000000000     0          
C        C      0.203210000000     0.471940000000     0.661840000000     0          
C        C      0.516380000000     0.846920000000     0.578210000000     0          
C        C      0.837590000000     0.101970000000     0.645680000000     0          
C        C      0.445910000000     0.761310000000     0.960340000000     0          
C        C      0.775980000000     0.820480000000     0.674050000000     0          
C        C      0.520150000000     0.937510000000     0.879380000000     0          
C        C      0.533230000000     0.822990000000     0.795400000000     0          
C        C      0.483620000000     0.153080000000     0.921790000000     0          
C        C      0.942130000000     0.686490000000     0.594780000000     0          
C        C      0.101970000000     0.453770000000     0.645680000000     0          
C        C      0.380830000000     0.154390000000     0.825980000000     0          
C        C      0.359960000000     0.690500000000     0.921790000000     0          
C        C      0.892360000000     0.191510000000     0.678620000000     0          
C        C      0.470980000000     0.110030000000     0.637560000000     0          
C        C      0.554090000000     0.238690000000     0.539660000000     0          
C        C      0.840630000000     0.554090000000     0.539660000000     0          
C        C      0.898030000000     0.546230000000     0.854320000000     0          
C        C      0.233160000000     0.468550000000     0.726360000000     0          
C        C      0.147720000000     0.373450000000     0.810740000000     0          
C        C      0.195860000000     0.834910000000     0.862440000000     0          
C        C      0.384610000000     0.514170000000     0.618320000000     0          
C        C      0.517570000000     0.706620000000     0.715580000000     0          
C        C      0.217640000000     0.099250000000     0.784360000000     0          
C        C      0.559600000000     0.706330000000     0.894400000000     0          
C        C      0.271130000000     0.497570000000     0.825980000000     0          
C        C      0.368480000000     0.761210000000     0.605000000000     0          
C        C      0.439140000000     0.264240000000     0.580340000000     0          
C        C      0.166180000000     0.347230000000     0.823930000000     0          
C        C      0.735760000000     0.278460000000     0.919660000000     0          
C        C      0.329020000000     0.511430000000     0.601790000000     0          
C        C      0.526240000000     0.751970000000     0.689260000000     0          
C        C      0.189390000000     0.837590000000     0.645680000000     0          
C        C      0.062490000000     0.761390000000     0.620620000000     0          
C        C      0.214800000000     0.992940000000     0.881510000000     0          
C        C      0.691110000000     0.847240000000     0.567320000000     0          
C        C      0.227180000000     0.509540000000     0.571730000000     0          
C        C      0.473760000000     0.248030000000     0.810740000000     0          
C        C      0.526290000000     0.759150000000     0.728420000000     0          
C        C      0.288650000000     0.180320000000     0.920470000000     0          
C        C      0.852030000000     0.722470000000     0.618320000000     0          
C        C      0.780440000000     0.015830000000     0.773640000000     0          
C        C      0.191510000000     0.464880000000     0.678620000000     0          
C        C      0.896440000000     0.439140000000     0.580340000000     0          
C        C      0.874560000000     0.692150000000     0.601790000000     0          
C        C      0.238690000000     0.525230000000     0.539660000000     0          
C        C      0.759150000000     0.930550000000     0.728420000000     0          
C        C      0.819680000000     0.447710000000     0.579530000000     0          
C        C      0.611290000000     0.259070000000     0.563850000000     0          
C        C      0.154390000000     0.271130000000     0.825980000000     0          
C        C      0.852280000000     0.626550000000     0.689260000000     0          
C        C      0.448790000000     0.368480000000     0.605000000000     0          
C        C      0.287400000000     0.691110000000     0.567320000000     0          
C        C      0.782360000000     0.900750000000     0.715640000000     0          
C        C      0.631520000000     0.238790000000     0.895000000000     0          
C        C      0.543300000000     0.574780000000     0.880440000000     0          
C        C      0.114890000000     0.858790000000     0.829610000000     0          
C        C      0.560860000000     0.735760000000     0.919660000000     0          
C        C      0.740930000000     0.483590000000     0.936150000000     0          
C        C      0.453770000000     0.189390000000     0.645680000000     0          
C        C      0.785200000000     0.007060000000     0.618490000000     0          
C        C      0.179520000000     0.427880000000     0.825950000000     0          
C        C      0.916280000000     0.633920000000     0.571730000000     0          
C        C      0.513670000000     0.676770000000     0.689120000000     0          
C        C      0.864570000000     0.701470000000     0.689120000000     0          
C        C      0.724540000000     0.517570000000     0.715580000000     0          
C        C      0.300630000000     0.166180000000     0.823930000000     0          
C        C      0.447710000000     0.339380000000     0.579530000000     0          
N        N      0.314310000000     0.836790000000     0.415510000000     0          
N        N      0.798760000000     0.968230000000     0.119970000000     0          
N        N      0.575000000000     0.705940000000     0.360680000000     0          
N        N      0.522550000000     0.949240000000     0.403250000000     0          
N        N      0.213600000000     0.493240000000     0.101880000000     0          
N        N      0.716050000000     0.142740000000     0.096750000000     0          
N        N      0.990160000000     0.710520000000     0.101880000000     0          
N        N      0.047460000000     0.721400000000     0.289960000000     0          
N        N      0.009840000000     0.289480000000     0.398120000000     0          
N        N      0.037500000000     0.429000000000     0.151250000000     0          
N        N      0.308460000000     0.471600000000     0.235200000000     0          
N        N      0.005770000000     0.685690000000     0.084490000000     0          
N        N      0.728290000000     0.201240000000     0.380030000000     0          
N        N      0.916400000000     0.526100000000     0.390200000000     0          
N        N      0.691540000000     0.528400000000     0.264800000000     0          
N        N      0.209220000000     0.018510000000     0.244510000000     0          
N        N      0.685690000000     0.163210000000     0.084490000000     0          
N        N      0.015420000000     0.575000000000     0.360680000000     0          
N        N      0.271710000000     0.798760000000     0.119970000000     0          
N        N      0.981490000000     0.720200000000     0.255490000000     0          
N        N      0.473900000000     0.136000000000     0.109800000000     0          
N        N      0.467540000000     0.141480000000     0.210040000000     0          
N        N      0.529490000000     0.790780000000     0.255490000000     0          
N        N      0.962500000000     0.571000000000     0.348750000000     0          
N        N      0.283950000000     0.857260000000     0.403250000000     0          
N        N      0.429000000000     0.265000000000     0.151250000000     0          
N        N      0.516710000000     0.994230000000     0.415510000000     0          
N        N      0.050760000000     0.716050000000     0.096750000000     0          
N        N      0.279800000000     0.470510000000     0.244510000000     0          
N        N      0.477450000000     0.050760000000     0.096750000000     0          
N        N      0.984580000000     0.425000000000     0.139320000000     0          
N        N      0.294060000000     0.853640000000     0.139320000000     0          
N        N      0.571000000000     0.735000000000     0.348750000000     0          
N        N      0.994230000000     0.314310000000     0.415510000000     0          
N        N      0.864000000000     0.254300000000     0.390200000000     0          
N        N      0.493240000000     0.990160000000     0.101880000000     0          
N        N      0.836790000000     0.516710000000     0.415510000000     0          
N        N      0.786400000000     0.506760000000     0.398120000000     0          
N        N      0.278600000000     0.467540000000     0.210040000000     0          
N        N      0.705940000000     0.146360000000     0.360680000000     0          
N        N      0.141480000000     0.952540000000     0.210040000000     0          
N        N      0.558820000000     0.728290000000     0.380030000000     0          
N        N      0.720200000000     0.529490000000     0.255490000000     0          
N        N      0.721400000000     0.532460000000     0.289960000000     0          
N        N      0.790780000000     0.981490000000     0.255490000000     0          
N        N      0.838060000000     0.001200000000     0.264800000000     0          
N        N      0.526100000000     0.864000000000     0.390200000000     0          
N        N      0.710520000000     0.213600000000     0.101880000000     0          
N        N      0.001200000000     0.691540000000     0.264800000000     0          
N        N      0.745700000000     0.083600000000     0.109800000000     0          
N        N      0.735000000000     0.126500000000     0.348750000000     0          
N        N      0.506760000000     0.009840000000     0.398120000000     0          
N        N      0.873500000000     0.037500000000     0.151250000000     0          
N        N      0.483290000000     0.005770000000     0.084490000000     0          
N        N      0.853640000000     0.984580000000     0.139320000000     0          
N        N      0.126500000000     0.962500000000     0.348750000000     0          
N        N      0.470510000000     0.209220000000     0.244510000000     0          
N        N      0.265000000000     0.873500000000     0.151250000000     0          
N        N      0.949240000000     0.283950000000     0.403250000000     0          
N        N      0.142740000000     0.477450000000     0.096750000000     0          
N        N      0.163210000000     0.483290000000     0.084490000000     0          
N        N      0.254300000000     0.916400000000     0.390200000000     0          
N        N      0.136000000000     0.745700000000     0.109800000000     0          
N        N      0.018510000000     0.279800000000     0.244510000000     0          
N        N      0.532460000000     0.858520000000     0.289960000000     0          
N        N      0.998800000000     0.308460000000     0.235200000000     0          
N        N      0.528400000000     0.838060000000     0.264800000000     0          
N        N      0.471600000000     0.161940000000     0.235200000000     0          
N        N      0.968230000000     0.441180000000     0.119970000000     0          
N        N      0.441180000000     0.271710000000     0.119970000000     0          
N        N      0.425000000000     0.294060000000     0.139320000000     0          
N        N      0.031770000000     0.558820000000     0.380030000000     0          
N        N      0.201240000000     0.031770000000     0.380030000000     0          
N        N      0.161940000000     0.998800000000     0.235200000000     0          
N        N      0.146360000000     0.015420000000     0.360680000000     0          
N        N      0.952540000000     0.278600000000     0.210040000000     0          
N        N      0.858520000000     0.047460000000     0.289960000000     0          
N        N      0.857260000000     0.522550000000     0.403250000000     0          
N        N      0.289480000000     0.786400000000     0.398120000000     0          
N        N      0.083600000000     0.473900000000     0.109800000000     0          
N        N      0.314310000000     0.836790000000     0.915510000000     0          
N        N      0.798760000000     0.968230000000     0.619970000000     0          
N        N      0.575000000000     0.705940000000     0.860680000000     0          
N        N      0.522550000000     0.949240000000     0.903250000000     0          
N        N      0.213600000000     0.493240000000     0.601880000000     0          
N        N      0.716050000000     0.142740000000     0.596750000000     0          
N        N      0.990160000000     0.710520000000     0.601880000000     0          
N        N      0.047460000000     0.721400000000     0.789960000000     0          
N        N      0.009840000000     0.289480000000     0.898120000000     0          
N        N      0.037500000000     0.429000000000     0.651250000000     0          
N        N      0.308460000000     0.471600000000     0.735200000000     0          
N        N      0.005770000000     0.685690000000     0.584490000000     0          
N        N      0.728290000000     0.201240000000     0.880030000000     0          
N        N      0.916400000000     0.526100000000     0.890200000000     0          
N        N      0.691540000000     0.528400000000     0.764800000000     0          
N        N      0.209220000000     0.018510000000     0.744510000000     0          
N        N      0.685690000000     0.163210000000     0.584490000000     0          
N        N      0.015420000000     0.575000000000     0.860680000000     0          
N        N      0.271710000000     0.798760000000     0.619970000000     0          
N        N      0.981490000000     0.720200000000     0.755490000000     0          
N        N      0.473900000000     0.136000000000     0.609800000000     0          
N        N      0.467540000000     0.141480000000     0.710040000000     0          
N        N      0.529490000000     0.790780000000     0.755490000000     0          
N        N      0.962500000000     0.571000000000     0.848750000000     0          
N        N      0.283950000000     0.857260000000     0.903250000000     0          
N        N      0.429000000000     0.265000000000     0.651250000000     0          
N        N      0.516710000000     0.994230000000     0.915510000000     0          
N        N      0.050760000000     0.716050000000     0.596750000000     0          
N        N      0.279800000000     0.470510000000     0.744510000000     0          
N        N      0.477450000000     0.050760000000     0.596750000000     0          
N        N      0.984580000000     0.425000000000     0.639320000000     0          
N        N      0.294060000000     0.853640000000     0.639320000000     0          
N        N      0.571000000000     0.735000000000     0.848750000000     0          
N        N      0.994230000000     0.314310000000     0.915510000000     0          
N        N      0.864000000000     0.254300000000     0.890200000000     0          
N        N      0.493240000000     0.990160000000     0.601880000000     0          
N        N      0.836790000000     0.516710000000     0.915510000000     0          
N        N      0.786400000000     0.506760000000     0.898120000000     0          
N        N      0.278600000000     0.467540000000     0.710040000000     0          
N        N      0.705940000000     0.146360000000     0.860680000000     0          
N        N      0.141480000000     0.952540000000     0.710040000000     0          
N        N      0.558820000000     0.728290000000     0.880030000000     0          
N        N      0.720200000000     0.529490000000     0.755490000000     0          
N        N      0.721400000000     0.532460000000     0.789960000000     0          
N        N      0.790780000000     0.981490000000     0.755490000000     0          
N        N      0.838060000000     0.001200000000     0.764800000000     0          
N        N      0.526100000000     0.864000000000     0.890200000000     0          
N        N      0.710520000000     0.213600000000     0.601880000000     0          
N        N      0.001200000000     0.691540000000     0.764800000000     0          
N        N      0.745700000000     0.083600000000     0.609800000000     0          
N        N      0.735000000000     0.126500000000     0.848750000000     0          
N        N      0.506760000000     0.009840000000     0.898120000000     0          
N        N      0.873500000000     0.037500000000     0.651250000000     0          
N        N      0.483290000000     0.005770000000     0.584490000000     0          
N        N      0.853640000000     0.984580000000     0.639320000000     0          
N        N      0.126500000000     0.962500000000     0.848750000000     0          
N        N      0.470510000000     0.209220000000     0.744510000000     0          
N        N      0.265000000000     0.873500000000     0.651250000000     0          
N        N      0.949240000000     0.283950000000     0.903250000000     0          
N        N      0.142740000000     0.477450000000     0.596750000000     0          
N        N      0.163210000000     0.483290000000     0.584490000000     0          
N        N      0.254300000000     0.916400000000     0.890200000000     0          
N        N      0.136000000000     0.745700000000     0.609800000000     0          
N        N      0.018510000000     0.279800000000     0.744510000000     0          
N        N      0.532460000000     0.858520000000     0.789960000000     0          
N        N      0.998800000000     0.308460000000     0.735200000000     0          
N        N      0.528400000000     0.838060000000     0.764800000000     0          
N        N      0.471600000000     0.161940000000     0.735200000000     0          
N        N      0.968230000000     0.441180000000     0.619970000000     0          
N        N      0.441180000000     0.271710000000     0.619970000000     0          
N        N      0.425000000000     0.294060000000     0.639320000000     0          
N        N      0.031770000000     0.558820000000     0.880030000000     0          
N        N      0.201240000000     0.031770000000     0.880030000000     0          
N        N      0.161940000000     0.998800000000     0.735200000000     0          
N        N      0.146360000000     0.015420000000     0.860680000000     0          
N        N      0.952540000000     0.278600000000     0.710040000000     0          
N        N      0.858520000000     0.047460000000     0.789960000000     0          
N        N      0.857260000000     0.522550000000     0.903250000000     0          
N        N      0.289480000000     0.786400000000     0.898120000000     0          
N        N      0.083600000000     0.473900000000     0.609800000000     0          


